# CIF file generated by openbabel 3.1.0, see https://openbabel.org
data_I
_chemical_name_common 'image0'
_cell_length_a 44.1252
_cell_length_b 44.1252
_cell_length_c 42.2961
_cell_angle_alpha 90
_cell_angle_beta 90
_cell_angle_gamma 120
_space_group_name_H-M_alt 'P 1'
_space_group_name_Hall 'P 1'
loop_
    _symmetry_equiv_pos_as_xyz
    x,y,z
loop_
    _atom_site_label
    _atom_site_type_symbol
    _atom_site_fract_x
    _atom_site_fract_y
    _atom_site_fract_z
    _atom_site_occupancy
    In1      In       0.80138    0.04043    0.95905    1.000
    O1       O        0.82457    0.07384    0.91413    1.000
    O2       O        0.82316    0.09836    0.95823    1.000
    O3       O        0.77823    0.99971    0.99811    1.000
    O4       O        0.79318    0.05293    0.00926    1.000
    O5       O        0.82779    0.01057    0.94289    1.000
    O6       O        0.85507    0.05389    0.97612    1.000
    O7       O        0.74917    0.03796    0.94825    1.000
    O8       O        0.76123    0.99963    0.92634    1.000
    C1       C        0.83202    0.10193    0.92934    1.000
    C2       C        0.78124    0.02156    0.01837    1.000
    C3       C        0.85485    0.02913    0.95998    1.000
    C4       C        0.84931    0.13598    0.91374    1.000
    C5       C        0.77181    0.01249    0.05155    1.000
    C6       C        0.88460    0.02306    0.95972    1.000
    C7       C        0.86029    0.16558    0.93243    1.000
    C8       C        0.85441    0.13938    0.88122    1.000
    C9       C        0.76025    0.97882    0.06228    1.000
    C10      C        0.77547    0.03815    0.07287    1.000
    C11      C        0.88172    0.99404    0.94391    1.000
    C12      C        0.91601    0.04631    0.97499    1.000
    H1       H        0.85690    0.16330    0.95420    1.000
    C13      C        0.87636    0.19857    0.91859    1.000
    C14      C        0.87048    0.17237    0.86738    1.000
    H2       H        0.84710    0.11960    0.86870    1.000
    H3       H        0.75870    0.96190    0.04820    1.000
    C15      C        0.75099    0.96977    0.09336    1.000
    C16      C        0.76647    0.02907    0.10404    1.000
    H4       H        0.78390    0.06110    0.06620    1.000
    H5       H        0.86120    0.97870    0.93340    1.000
    C17      C        0.90923    0.98846    0.94407    1.000
    C18      C        0.94342    0.04039    0.97381    1.000
    H6       H        0.91810    0.06560    0.98580    1.000
    H7       H        0.88370    0.21840    0.93110    1.000
    C19      C        0.88146    0.20196    0.88606    1.000
    H8       H        0.87390    0.17460    0.84560    1.000
    H9       H        0.74270    0.94690    0.10000    1.000
    C20      C        0.75410    0.99511    0.11468    1.000
    H10      H        0.76870    0.04610    0.11830    1.000
    H11      H        0.90670    0.96850    0.93420    1.000
    C21      C        0.94149    0.01159    0.95851    1.000
    H12      H        0.96430    0.05620    0.98360    1.000
    C22      C        0.90016    0.23783    0.87137    1.000
    C23      C        0.74380    0.98645    0.14920    1.000
    C24      C        0.97184    0.00614    0.95708    1.000
    C25      C        0.89170    0.24250    0.84078    1.000
    C26      C        0.92677    0.26586    0.88768    1.000
    C27      C        0.74996    0.96239    0.16433    1.000
    C28      C        0.72890    0.00304    0.16438    1.000
    C29      C        0.00567    0.03337    0.95756    1.000
    H13      H        0.87390    0.22380    0.82990    1.000
    C30      C        0.90988    0.27519    0.82650    1.000
    C31      C        0.94495    0.29855    0.87339    1.000
    H14      H        0.93240    0.26270    0.90810    1.000
    H15      H        0.76090    0.95200    0.15380    1.000
    C32      C        0.73950    0.95389    0.19592    1.000
    C33      C        0.71850    0.99518    0.19603    1.000
    H16      H        0.72570    0.01960    0.15370    1.000
    H17      H        0.00960    0.05610    0.95820    1.000
    C34      C        0.93650    0.30322    0.84280    1.000
    C35      C        0.90250    0.27993    0.79279    1.000
    C36      C        0.97238    0.32888    0.89147    1.000
    C37      C        0.72380    0.97048    0.21122    1.000
    C38      C        0.74628    0.92879    0.21356    1.000
    C39      C        0.70185    0.01260    0.21304    1.000
    H18      H        0.94860    0.32510    0.83320    1.000
    C40      C        0.90864    0.31127    0.78104    1.000
    C41      C        0.88980    0.25177    0.77246    1.000
    C42      C        0.99856    0.32719    0.90829    1.000
    C43      C        0.97131    0.35983    0.89083    1.000
    H19      H        0.71670    0.96480    0.23210    1.000
    C44      C        0.73764    0.92327    0.24545    1.000
    C45      C        0.75881    0.90933    0.19834    1.000
    C46      C        0.67509    0.99346    0.23467    1.000
    C47      C        0.71210    0.04657    0.20765    1.000
    H20      H        0.91820    0.33070    0.79430    1.000
    C48      C        0.90112    0.31505    0.75028    1.000
    C49      C        0.88450    0.25550    0.74200    1.000
    H21      H        0.88490    0.23000    0.78000    1.000
    H22      H        0.99930    0.30650    0.90870    1.000
    C50      C        0.02367    0.35645    0.92446    1.000
    C51      C        0.99643    0.38909    0.90701    1.000
    H23      H        0.95380    0.36100    0.87960    1.000
    H24      H        0.72930    0.93630    0.25560    1.000
    C52      C        0.74150    0.89830    0.26214    1.000
    C53      C        0.76270    0.88435    0.21503    1.000
    H25      H        0.76460    0.91300    0.17700    1.000
    H26      H        0.66760    0.97000    0.23830    1.000
    C54      C        0.65976    0.00975    0.25072    1.000
    C55      C        0.69714    0.06306    0.22412    1.000
    H27      H        0.72940    0.05910    0.19270    1.000
    H28      H        0.90510    0.33660    0.74290    1.000
    C56      C        0.88761    0.28640    0.73047    1.000
    H29      H        0.87850    0.23700    0.72810    1.000
    H30      H        0.04120    0.35530    0.93570    1.000
    C57      C        0.02261    0.38740    0.92382    1.000
    H31      H        0.99570    0.40980    0.90660    1.000
    H32      H        0.73570    0.89460    0.28350    1.000
    C58      C        0.75406    0.87883    0.24693    1.000
    H33      H        0.77110    0.87130    0.20480    1.000
    H34      H        0.64160    0.99690    0.26480    1.000
    C59      C        0.67123    0.04495    0.24595    1.000
    H35      H        0.70480    0.08650    0.22030    1.000
    C60      C        0.87998    0.28920    0.69660    1.000
    C61      C        0.04790    0.41734    0.94142    1.000
    C62      C        0.75770    0.84930    0.26430    1.000
    C63      C        0.65607    0.06335    0.26314    1.000
    O9       O        0.86344    0.26172    0.68051    1.000
    O10      O        0.88779    0.31838    0.68463    1.000
    O11      O        0.04044    0.44040    0.95087    1.000
    O12      O        0.07780    0.42435    0.94644    1.000
    O13      O        0.77198    0.83609    0.25420    1.000
    O14      O        0.74780    0.84740    0.29290    1.000
    In2      In       0.85998    0.28826    0.63782    1.000
    O15      O        0.84286    0.32739    0.62941    1.000
    O16      O        0.81203    0.28426    0.66133    1.000
    C64      C        0.81587    0.30988    0.64550    1.000
    C65      C        0.78615    0.31708    0.64547    1.000
    C66      C        0.75522    0.29412    0.66089    1.000
    C67      C        0.78816    0.34455    0.62773    1.000
    H36      H        0.75390    0.27570    0.67280    1.000
    C68      C        0.72629    0.29863    0.65857    1.000
    C69      C        0.75924    0.34905    0.62542    1.000
    H37      H        0.80890    0.35990    0.61740    1.000
    H38      H        0.70560    0.28330    0.66890    1.000
    C70      C        0.72830    0.32609    0.64083    1.000
    H39      H        0.76060    0.36740    0.61350    1.000
    C71      C        0.69640    0.33060    0.63780    1.000
    C72      C        0.66320    0.30080    0.63794    1.000
    H40      H        0.66100    0.27880    0.63810    1.000
    In3      In       0.46805    0.37376    0.29239    1.000
    O17      O        0.49124    0.40717    0.24746    1.000
    O18      O        0.48983    0.43169    0.29156    1.000
    O19      O        0.44490    0.33304    0.33144    1.000
    O20      O        0.45985    0.38626    0.34259    1.000
    O21      O        0.49446    0.34390    0.27622    1.000
    O22      O        0.52174    0.38722    0.30945    1.000
    O23      O        0.41584    0.37129    0.28158    1.000
    O24      O        0.42790    0.33296    0.25967    1.000
    C73      C        0.49869    0.43526    0.26267    1.000
    C74      C        0.44791    0.35489    0.35170    1.000
    C75      C        0.52152    0.36246    0.29331    1.000
    C76      C        0.51598    0.46931    0.24707    1.000
    C77      C        0.43848    0.34582    0.38488    1.000
    C78      C        0.55127    0.35639    0.29305    1.000
    C79      C        0.52696    0.49891    0.26576    1.000
    C80      C        0.52108    0.47271    0.21455    1.000
    C81      C        0.42692    0.31215    0.39561    1.000
    C82      C        0.44214    0.37148    0.40620    1.000
    C83      C        0.54839    0.32737    0.27724    1.000
    C84      C        0.58268    0.37964    0.30832    1.000
    H41      H        0.52357    0.49663    0.28753    1.000
    C85      C        0.54303    0.53190    0.25192    1.000
    C86      C        0.53715    0.50570    0.20071    1.000
    H42      H        0.51377    0.45293    0.20203    1.000
    H43      H        0.42537    0.29523    0.38153    1.000
    C87      C        0.41766    0.30310    0.42669    1.000
    C88      C        0.43314    0.36240    0.43737    1.000
    H44      H        0.45057    0.39443    0.39953    1.000
    H45      H        0.52787    0.31203    0.26673    1.000
    C89      C        0.57590    0.32179    0.27740    1.000
    C90      C        0.61009    0.37372    0.30714    1.000
    H46      H        0.58477    0.39893    0.31913    1.000
    H47      H        0.55037    0.55173    0.26443    1.000
    C91      C        0.54813    0.53529    0.21939    1.000
    H48      H        0.54057    0.50793    0.17893    1.000
    H49      H        0.40937    0.28023    0.43333    1.000
    C92      C        0.42077    0.32844    0.44801    1.000
    H50      H        0.43537    0.37943    0.45163    1.000
    H51      H        0.57337    0.30183    0.26753    1.000
    C93      C        0.60816    0.34492    0.29184    1.000
    H52      H        0.63097    0.38953    0.31693    1.000
    C94      C        0.56683    0.57116    0.20470    1.000
    C95      C        0.41047    0.31978    0.48253    1.000
    C96      C        0.63851    0.33947    0.29041    1.000
    C97      C        0.55837    0.57583    0.17411    1.000
    C98      C        0.59344    0.59919    0.22101    1.000
    C99      C        0.41663    0.29572    0.49766    1.000
    C100     C        0.39557    0.33637    0.49771    1.000
    C101     C        0.67234    0.36670    0.29089    1.000
    H53      H        0.54057    0.55713    0.16323    1.000
    C102     C        0.57655    0.60852    0.15983    1.000
    C103     C        0.61162    0.63188    0.20672    1.000
    H54      H        0.59907    0.59603    0.24143    1.000
    H55      H        0.42757    0.28533    0.48713    1.000
    C104     C        0.40617    0.28722    0.52925    1.000
    C105     C        0.38517    0.32851    0.52936    1.000
    H56      H        0.39237    0.35293    0.48703    1.000
    H57      H        0.67627    0.38943    0.29153    1.000
    C106     C        0.60317    0.63655    0.17613    1.000
    C107     C        0.56917    0.61326    0.12612    1.000
    C108     C        0.63905    0.66221    0.22480    1.000
    C109     C        0.39047    0.30381    0.54455    1.000
    C110     C        0.41295    0.26212    0.54689    1.000
    C111     C        0.36852    0.34593    0.54637    1.000
    H58      H        0.61527    0.65843    0.16653    1.000
    C112     C        0.57531    0.64460    0.11437    1.000
    C113     C        0.55647    0.58510    0.10579    1.000
    C114     C        0.66523    0.66052    0.24162    1.000
    C115     C        0.63798    0.69316    0.22416    1.000
    H59      H        0.38337    0.29813    0.56543    1.000
    C116     C        0.40431    0.25660    0.57878    1.000
    C117     C        0.42548    0.24266    0.53167    1.000
    C118     C        0.34176    0.32679    0.56800    1.000
    C119     C        0.37877    0.37990    0.54098    1.000
    H60      H        0.58487    0.66403    0.12763    1.000
    C120     C        0.56779    0.64838    0.08361    1.000
    C121     C        0.55117    0.58883    0.07533    1.000
    H61      H        0.55157    0.56333    0.11333    1.000
    H62      H        0.66597    0.63983    0.24203    1.000
    C122     C        0.69034    0.68978    0.25779    1.000
    C123     C        0.66310    0.72242    0.24034    1.000
    H63      H        0.62047    0.69433    0.21293    1.000
    H64      H        0.39597    0.26963    0.58893    1.000
    C124     C        0.40817    0.23163    0.59547    1.000
    C125     C        0.42937    0.21768    0.54836    1.000
    H65      H        0.43127    0.24633    0.51033    1.000
    H66      H        0.33427    0.30333    0.57163    1.000
    C126     C        0.32643    0.34308    0.58405    1.000
    C127     C        0.36381    0.39639    0.55745    1.000
    H67      H        0.39607    0.39243    0.52603    1.000
    H68      H        0.57177    0.66993    0.07623    1.000
    C128     C        0.55428    0.61973    0.06380    1.000
    H69      H        0.54517    0.57033    0.06143    1.000
    H70      H        0.70787    0.68863    0.26903    1.000
    C129     C        0.68928    0.72073    0.25715    1.000
    H71      H        0.66237    0.74313    0.23993    1.000
    H72      H        0.40237    0.22793    0.61683    1.000
    C130     C        0.42073    0.21216    0.58026    1.000
    H73      H        0.43777    0.20463    0.53813    1.000
    H74      H        0.30827    0.33023    0.59813    1.000
    C131     C        0.33790    0.37828    0.57928    1.000
    H75      H        0.37147    0.41983    0.55363    1.000
    C132     C        0.54665    0.62253    0.02993    1.000
    C133     C        0.71457    0.75067    0.27475    1.000
    C134     C        0.42437    0.18263    0.59763    1.000
    C135     C        0.32274    0.39668    0.59647    1.000
    O25      O        0.53011    0.59505    0.01384    1.000
    O26      O        0.55446    0.65171    0.01796    1.000
    O27      O        0.70711    0.77373    0.28420    1.000
    O28      O        0.74447    0.75768    0.27977    1.000
    O29      O        0.43865    0.16942    0.58753    1.000
    O30      O        0.41447    0.18073    0.62623    1.000
    In4      In       0.52664    0.62159    0.97116    1.000
    O31      O        0.50953    0.66072    0.96274    1.000
    O32      O        0.47870    0.61759    0.99466    1.000
    C136     C        0.48254    0.64321    0.97883    1.000
    C137     C        0.45282    0.65041    0.97880    1.000
    C138     C        0.42189    0.62745    0.99422    1.000
    C139     C        0.45483    0.67788    0.96106    1.000
    H76      H        0.42057    0.60903    0.00613    1.000
    C140     C        0.39296    0.63196    0.99190    1.000
    C141     C        0.42591    0.68238    0.95875    1.000
    H77      H        0.47557    0.69323    0.95073    1.000
    H78      H        0.37227    0.61663    0.00223    1.000
    C142     C        0.39497    0.65942    0.97416    1.000
    H79      H        0.42727    0.70073    0.94683    1.000
    C143     C        0.36307    0.66393    0.97113    1.000
    C144     C        0.32987    0.63413    0.97127    1.000
    H80      H        0.32767    0.61213    0.97143    1.000
    In5      In       0.13471    0.70710    0.62572    1.000
    O33      O        0.15790    0.74051    0.58080    1.000
    O34      O        0.15649    0.76503    0.62490    1.000
    O35      O        0.11156    0.66638    0.66478    1.000
    O36      O        0.12651    0.71960    0.67593    1.000
    O37      O        0.16112    0.67724    0.60956    1.000
    O38      O        0.18840    0.72056    0.64279    1.000
    O39      O        0.08250    0.70463    0.61492    1.000
    O40      O        0.09456    0.66630    0.59301    1.000
    C145     C        0.16535    0.76860    0.59601    1.000
    C146     C        0.11457    0.68823    0.68504    1.000
    C147     C        0.18818    0.69580    0.62665    1.000
    C148     C        0.18264    0.80265    0.58041    1.000
    C149     C        0.10514    0.67916    0.71822    1.000
    C150     C        0.21793    0.68973    0.62639    1.000
    C151     C        0.19362    0.83225    0.59910    1.000
    C152     C        0.18774    0.80605    0.54789    1.000
    C153     C        0.09358    0.64549    0.72895    1.000
    C154     C        0.10880    0.70482    0.73954    1.000
    C155     C        0.21505    0.66071    0.61058    1.000
    C156     C        0.24934    0.71298    0.64166    1.000
    H81      H        0.19023    0.82997    0.62087    1.000
    C157     C        0.20969    0.86524    0.58526    1.000
    C158     C        0.20381    0.83904    0.53405    1.000
    H82      H        0.18043    0.78627    0.53537    1.000
    H83      H        0.09203    0.62857    0.71487    1.000
    C159     C        0.08432    0.63644    0.76003    1.000
    C160     C        0.09980    0.69574    0.77071    1.000
    H84      H        0.11723    0.72777    0.73287    1.000
    H85      H        0.19453    0.64537    0.60007    1.000
    C161     C        0.24256    0.65513    0.61074    1.000
    C162     C        0.27675    0.70706    0.64048    1.000
    H86      H        0.25143    0.73227    0.65247    1.000
    H87      H        0.21703    0.88507    0.59777    1.000
    C163     C        0.21479    0.86863    0.55273    1.000
    H88      H        0.20723    0.84127    0.51227    1.000
    H89      H        0.07603    0.61357    0.76667    1.000
    C164     C        0.08743    0.66178    0.78135    1.000
    H90      H        0.10203    0.71277    0.78497    1.000
    H91      H        0.24003    0.63517    0.60087    1.000
    C165     C        0.27482    0.67826    0.62518    1.000
    H92      H        0.29763    0.72287    0.65027    1.000
    C166     C        0.23349    0.90450    0.53804    1.000
    C167     C        0.07713    0.65312    0.81587    1.000
    C168     C        0.30517    0.67281    0.62375    1.000
    C169     C        0.22503    0.90917    0.50745    1.000
    C170     C        0.26010    0.93253    0.55435    1.000
    C171     C        0.08329    0.62906    0.83100    1.000
    C172     C        0.06223    0.66971    0.83105    1.000
    C173     C        0.33900    0.70004    0.62423    1.000
    H93      H        0.20723    0.89047    0.49657    1.000
    C174     C        0.24321    0.94186    0.49317    1.000
    C175     C        0.27828    0.96522    0.54006    1.000
    H94      H        0.26573    0.92937    0.57477    1.000
    H95      H        0.09423    0.61867    0.82047    1.000
    C176     C        0.07283    0.62056    0.86259    1.000
    C177     C        0.05183    0.66185    0.86270    1.000
    H96      H        0.05903    0.68627    0.82037    1.000
    H97      H        0.34293    0.72277    0.62487    1.000
    C178     C        0.26983    0.96989    0.50947    1.000
    C179     C        0.23583    0.94660    0.45946    1.000
    C180     C        0.30571    0.99555    0.55814    1.000
    C181     C        0.05713    0.63715    0.87789    1.000
    C182     C        0.07961    0.59546    0.88023    1.000
    C183     C        0.03518    0.67927    0.87971    1.000
    H98      H        0.28193    0.99177    0.49987    1.000
    C184     C        0.24197    0.97794    0.44771    1.000
    C185     C        0.22313    0.91844    0.43913    1.000
    C186     C        0.33189    0.99386    0.57496    1.000
    C187     C        0.30464    0.02650    0.55750    1.000
    H99      H        0.05003    0.63147    0.89877    1.000
    C188     C        0.07097    0.58994    0.91212    1.000
    C189     C        0.09214    0.57600    0.86501    1.000
    C190     C        0.00842    0.66013    0.90134    1.000
    C191     C        0.04543    0.71324    0.87432    1.000
    H100     H        0.25153    0.99737    0.46097    1.000
    C192     C        0.23445    0.98172    0.41695    1.000
    C193     C        0.21783    0.92217    0.40867    1.000
    H101     H        0.21823    0.89667    0.44667    1.000
    H102     H        0.33263    0.97317    0.57537    1.000
    C194     C        0.35700    0.02312    0.59113    1.000
    C195     C        0.32976    0.05576    0.57368    1.000
    H103     H        0.28713    0.02767    0.54627    1.000
    H104     H        0.06263    0.60297    0.92227    1.000
    C196     C        0.07483    0.56497    0.92881    1.000
    C197     C        0.09603    0.55102    0.88170    1.000
    H105     H        0.09793    0.57967    0.84367    1.000
    H106     H        0.00093    0.63667    0.90497    1.000
    C198     C        0.99309    0.67642    0.91739    1.000
    C199     C        0.03047    0.72973    0.89079    1.000
    H107     H        0.06273    0.72577    0.85937    1.000
    H108     H        0.23843    0.00327    0.40957    1.000
    C200     C        0.22094    0.95307    0.39714    1.000
    H109     H        0.21183    0.90367    0.39477    1.000
    H110     H        0.37453    0.02197    0.60237    1.000
    C201     C        0.35594    0.05407    0.59049    1.000
    H111     H        0.32903    0.07647    0.57327    1.000
    H112     H        0.06903    0.56127    0.95017    1.000
    C202     C        0.08739    0.54550    0.91360    1.000
    H113     H        0.10443    0.53797    0.87147    1.000
    H114     H        0.97493    0.66357    0.93147    1.000
    C203     C        0.00456    0.71162    0.91262    1.000
    H115     H        0.03813    0.75317    0.88697    1.000
    C204     C        0.21331    0.95587    0.36327    1.000
    C205     C        0.38123    0.08401    0.60809    1.000
    C206     C        0.09103    0.51597    0.93097    1.000
    C207     C        0.98940    0.73002    0.92981    1.000
    O41      O        0.19677    0.92839    0.34718    1.000
    O42      O        0.22112    0.98505    0.35130    1.000
    O43      O        0.37377    0.10707    0.61754    1.000
    O44      O        0.41113    0.09102    0.61311    1.000
    O45      O        0.10531    0.50276    0.92087    1.000
    O46      O        0.08113    0.51407    0.95957    1.000
    In6      In       0.19331    0.95492    0.30449    1.000
    O47      O        0.17619    0.99406    0.29608    1.000
    O48      O        0.14536    0.95093    0.32800    1.000
    C208     C        0.14920    0.97655    0.31217    1.000
    C209     C        0.11948    0.98375    0.31214    1.000
    C210     C        0.08855    0.96079    0.32756    1.000
    C211     C        0.12149    0.01122    0.29440    1.000
    H116     H        0.08723    0.94237    0.33947    1.000
    C212     C        0.05962    0.96530    0.32524    1.000
    C213     C        0.09257    0.01572    0.29209    1.000
    H117     H        0.14223    0.02657    0.28407    1.000
    H118     H        0.03893    0.94997    0.33557    1.000
    C214     C        0.06163    0.99276    0.30750    1.000
    H119     H        0.09393    0.03407    0.28017    1.000
    C215     C        0.02973    0.99727    0.30447    1.000
    C216     C        0.99653    0.96747    0.30461    1.000
    H120     H        0.99433    0.94547    0.30477    1.000
    In7      In       0.95957    0.76095    0.95905    1.000
    O49      O        0.92616    0.75073    0.91413    1.000
    O50      O        0.90164    0.72480    0.95823    1.000
    O51      O        0.00029    0.77852    0.99811    1.000
    O52      O        0.94707    0.74025    0.00926    1.000
    O53      O        0.98943    0.81722    0.94289    1.000
    O54      O        0.94611    0.80118    0.97612    1.000
    O55      O        0.96204    0.71121    0.94825    1.000
    O56      O        0.00037    0.76160    0.92634    1.000
    C217     C        0.89807    0.73009    0.92934    1.000
    C218     C        0.97844    0.75968    0.01837    1.000
    C219     C        0.97087    0.82572    0.95998    1.000
    C220     C        0.86402    0.71333    0.91374    1.000
    C221     C        0.98751    0.75932    0.05155    1.000
    C222     C        0.97694    0.86154    0.95972    1.000
    C223     C        0.83442    0.69471    0.93243    1.000
    C224     C        0.86062    0.71503    0.88122    1.000
    C225     C        0.02118    0.78143    0.06228    1.000
    C226     C        0.96185    0.73732    0.07287    1.000
    C227     C        0.00596    0.88768    0.94391    1.000
    C228     C        0.95369    0.86970    0.97499    1.000
    H121     H        0.83670    0.69360    0.95420    1.000
    C229     C        0.80143    0.67779    0.91859    1.000
    C230     C        0.82763    0.69811    0.86738    1.000
    H122     H        0.88040    0.72750    0.86870    1.000
    H123     H        0.03810    0.79680    0.04820    1.000
    C231     C        0.03023    0.78122    0.09336    1.000
    C232     C        0.97093    0.73740    0.10404    1.000
    H124     H        0.93890    0.72280    0.06620    1.000
    H125     H        0.02130    0.88250    0.93340    1.000
    C233     C        0.01154    0.92077    0.94407    1.000
    C234     C        0.95961    0.90303    0.97381    1.000
    H126     H        0.93440    0.85250    0.98580    1.000
    H127     H        0.78160    0.66530    0.93110    1.000
    C235     C        0.79804    0.67950    0.88606    1.000
    H128     H        0.82540    0.69930    0.84560    1.000
    H129     H        0.05310    0.79580    0.10000    1.000
    C236     C        0.00489    0.75899    0.11468    1.000
    H130     H        0.95390    0.72260    0.11830    1.000
    H131     H        0.03150    0.93820    0.93420    1.000
    C237     C        0.98841    0.92990    0.95851    1.000
    H132     H        0.94380    0.90810    0.98360    1.000
    C238     C        0.76217    0.66233    0.87137    1.000
    C239     C        0.01355    0.75735    0.14920    1.000
    C240     C        0.99386    0.96570    0.95708    1.000
    C241     C        0.75750    0.64920    0.84078    1.000
    C242     C        0.73414    0.66091    0.88768    1.000
    C243     C        0.03761    0.78757    0.16433    1.000
    C244     C        0.99696    0.72586    0.16438    1.000
    C245     C        0.96663    0.97230    0.95756    1.000
    H133     H        0.77620    0.65010    0.82990    1.000
    C246     C        0.72481    0.63469    0.82650    1.000
    C247     C        0.70145    0.64640    0.87339    1.000
    H134     H        0.73730    0.66970    0.90810    1.000
    H135     H        0.04800    0.80890    0.15380    1.000
    C248     C        0.04611    0.78561    0.19592    1.000
    C249     C        0.00482    0.72332    0.19603    1.000
    H136     H        0.98040    0.70610    0.15370    1.000
    H137     H        0.94390    0.95350    0.95820    1.000
    C250     C        0.69678    0.63328    0.84280    1.000
    C251     C        0.72007    0.62257    0.79279    1.000
    C252     C        0.67112    0.64350    0.89147    1.000
    C253     C        0.02952    0.75332    0.21122    1.000
    C254     C        0.07121    0.81749    0.21356    1.000
    C255     C        0.98740    0.68925    0.21304    1.000
    H138     H        0.67490    0.62350    0.83320    1.000
    C256     C        0.68873    0.59737    0.78104    1.000
    C257     C        0.74823    0.63803    0.77246    1.000
    C258     C        0.67281    0.67137    0.90829    1.000
    C259     C        0.64017    0.61148    0.89083    1.000
    H139     H        0.03520    0.75190    0.23210    1.000
    C260     C        0.07673    0.81437    0.24545    1.000
    C261     C        0.09067    0.84948    0.19834    1.000
    C262     C        0.00654    0.68163    0.23467    1.000
    C263     C        0.95343    0.66553    0.20765    1.000
    H140     H        0.66930    0.58750    0.79430    1.000
    C264     C        0.68495    0.58607    0.75028    1.000
    C265     C        0.74450    0.62900    0.74200    1.000
    H141     H        0.77000    0.65490    0.78000    1.000
    H142     H        0.69350    0.69280    0.90870    1.000
    C266     C        0.64355    0.66722    0.92446    1.000
    C267     C        0.61091    0.60734    0.90701    1.000
    H143     H        0.63900    0.59280    0.87960    1.000
    H144     H        0.06370    0.79300    0.25560    1.000
    C268     C        0.10170    0.84320    0.26214    1.000
    C269     C        0.11565    0.87835    0.21503    1.000
    H145     H        0.08700    0.85160    0.17700    1.000
    H146     H        0.03000    0.69760    0.23830    1.000
    C270     C        0.99025    0.65001    0.25072    1.000
    C271     C        0.93694    0.63408    0.22412    1.000
    H147     H        0.94090    0.67030    0.19270    1.000
    H148     H        0.66340    0.56850    0.74290    1.000
    C272     C        0.71360    0.60121    0.73047    1.000
    H149     H        0.76300    0.64150    0.72810    1.000
    H150     H        0.64470    0.68590    0.93570    1.000
    C273     C        0.61260    0.63521    0.92382    1.000
    H151     H        0.59020    0.58590    0.90660    1.000
    H152     H        0.10540    0.84110    0.28350    1.000
    C274     C        0.12117    0.87523    0.24693    1.000
    H153     H        0.12870    0.89980    0.20480    1.000
    H154     H        0.00310    0.64470    0.26480    1.000
    C275     C        0.95505    0.62628    0.24595    1.000
    H155     H        0.91350    0.61830    0.22030    1.000
    C276     C        0.71080    0.59078    0.69660    1.000
    C277     C        0.58266    0.63056    0.94142    1.000
    C278     C        0.15070    0.90840    0.26430    1.000
    C279     C        0.93665    0.59272    0.26314    1.000
    O57      O        0.73828    0.60172    0.68051    1.000
    O58      O        0.68162    0.56941    0.68463    1.000
    O59      O        0.55960    0.60004    0.95087    1.000
    O60      O        0.57565    0.65345    0.94644    1.000
    O61      O        0.16391    0.93589    0.25420    1.000
    O62      O        0.15260    0.90040    0.29290    1.000
    In8      In       0.71174    0.57172    0.63782    1.000
    O63      O        0.67261    0.51547    0.62941    1.000
    O64      O        0.71574    0.52777    0.66133    1.000
    C280     C        0.69012    0.50599    0.64550    1.000
    C281     C        0.68292    0.46907    0.64547    1.000
    C282     C        0.70588    0.46110    0.66089    1.000
    C283     C        0.65545    0.44361    0.62773    1.000
    H156     H        0.72430    0.47820    0.67280    1.000
    C284     C        0.70137    0.42766    0.65857    1.000
    C285     C        0.65095    0.41019    0.62542    1.000
    H157     H        0.64010    0.44900    0.61740    1.000
    H158     H        0.71670    0.42230    0.66890    1.000
    C286     C        0.67391    0.40221    0.64083    1.000
    H159     H        0.63260    0.39320    0.61350    1.000
    C287     C        0.66940    0.36580    0.63780    1.000
    C288     C        0.69920    0.36240    0.63794    1.000
    H160     H        0.72120    0.38220    0.63810    1.000
    In9      In       0.62624    0.09428    0.29239    1.000
    O65      O        0.59283    0.08406    0.24746    1.000
    O66      O        0.56831    0.05813    0.29156    1.000
    O67      O        0.66696    0.11185    0.33144    1.000
    O68      O        0.61374    0.07358    0.34259    1.000
    O69      O        0.65610    0.15055    0.27622    1.000
    O70      O        0.61278    0.13451    0.30945    1.000
    O71      O        0.62871    0.04454    0.28158    1.000
    O72      O        0.66704    0.09493    0.25967    1.000
    C289     C        0.56474    0.06342    0.26267    1.000
    C290     C        0.64511    0.09301    0.35170    1.000
    C291     C        0.63754    0.15905    0.29331    1.000
    C292     C        0.53069    0.04666    0.24707    1.000
    C293     C        0.65418    0.09265    0.38488    1.000
    C294     C        0.64361    0.19487    0.29305    1.000
    C295     C        0.50109    0.02804    0.26576    1.000
    C296     C        0.52729    0.04836    0.21455    1.000
    C297     C        0.68785    0.11476    0.39561    1.000
    C298     C        0.62852    0.07065    0.40620    1.000
    C299     C        0.67263    0.22101    0.27724    1.000
    C300     C        0.62036    0.20303    0.30832    1.000
    H161     H        0.50337    0.02693    0.28753    1.000
    C301     C        0.46810    0.01112    0.25192    1.000
    C302     C        0.49430    0.03144    0.20071    1.000
    H162     H        0.54707    0.06083    0.20203    1.000
    H163     H        0.70477    0.13013    0.38153    1.000
    C303     C        0.69690    0.11455    0.42669    1.000
    C304     C        0.63760    0.07073    0.43737    1.000
    H164     H        0.60557    0.05613    0.39953    1.000
    H165     H        0.68797    0.21583    0.26673    1.000
    C305     C        0.67821    0.25410    0.27740    1.000
    C306     C        0.62628    0.23636    0.30714    1.000
    H166     H        0.60107    0.18583    0.31913    1.000
    H167     H        0.44827    0.99863    0.26443    1.000
    C307     C        0.46471    0.01283    0.21939    1.000
    H168     H        0.49207    0.03263    0.17893    1.000
    H169     H        0.71977    0.12913    0.43333    1.000
    C308     C        0.67156    0.09232    0.44801    1.000
    H170     H        0.62057    0.05593    0.45163    1.000
    H171     H        0.69817    0.27153    0.26753    1.000
    C309     C        0.65508    0.26323    0.29184    1.000
    H172     H        0.61047    0.24143    0.31693    1.000
    C310     C        0.42884    0.99566    0.20470    1.000
    C311     C        0.68022    0.09068    0.48253    1.000
    C312     C        0.66053    0.29903    0.29041    1.000
    C313     C        0.42417    0.98253    0.17411    1.000
    C314     C        0.40081    0.99424    0.22101    1.000
    C315     C        0.70428    0.12090    0.49766    1.000
    C316     C        0.66363    0.05919    0.49771    1.000
    C317     C        0.63330    0.30563    0.29089    1.000
    H173     H        0.44287    0.98343    0.16323    1.000
    C318     C        0.39148    0.96802    0.15983    1.000
    C319     C        0.36812    0.97973    0.20672    1.000
    H174     H        0.40397    0.00303    0.24143    1.000
    H175     H        0.71467    0.14223    0.48713    1.000
    C320     C        0.71278    0.11894    0.52925    1.000
    C321     C        0.67149    0.05665    0.52936    1.000
    H176     H        0.64707    0.03943    0.48703    1.000
    H177     H        0.61057    0.28683    0.29153    1.000
    C322     C        0.36345    0.96661    0.17613    1.000
    C323     C        0.38674    0.95590    0.12612    1.000
    C324     C        0.33779    0.97683    0.22480    1.000
    C325     C        0.69619    0.08665    0.54455    1.000
    C326     C        0.73788    0.15082    0.54689    1.000
    C327     C        0.65407    0.02258    0.54637    1.000
    H178     H        0.34157    0.95683    0.16653    1.000
    C328     C        0.35540    0.93070    0.11437    1.000
    C329     C        0.41490    0.97136    0.10579    1.000
    C330     C        0.33948    0.00470    0.24162    1.000
    C331     C        0.30684    0.94481    0.22416    1.000
    H179     H        0.70187    0.08523    0.56543    1.000
    C332     C        0.74340    0.14770    0.57878    1.000
    C333     C        0.75734    0.18281    0.53167    1.000
    C334     C        0.67321    0.01496    0.56800    1.000
    C335     C        0.62010    0.99886    0.54098    1.000
    H180     H        0.33597    0.92083    0.12763    1.000
    C336     C        0.35162    0.91940    0.08361    1.000
    C337     C        0.41117    0.96233    0.07533    1.000
    H181     H        0.43667    0.98823    0.11333    1.000
    H182     H        0.36017    0.02613    0.24203    1.000
    C338     C        0.31022    0.00055    0.25779    1.000
    C339     C        0.27758    0.94067    0.24034    1.000
    H183     H        0.30567    0.92613    0.21293    1.000
    H184     H        0.73037    0.12633    0.58893    1.000
    C340     C        0.76837    0.17653    0.59547    1.000
    C341     C        0.78232    0.21168    0.54836    1.000
    H185     H        0.75367    0.18493    0.51033    1.000
    H186     H        0.69667    0.03093    0.57163    1.000
    C342     C        0.65692    0.98334    0.58405    1.000
    C343     C        0.60361    0.96741    0.55745    1.000
    H187     H        0.60757    0.00363    0.52603    1.000
    H188     H        0.33007    0.90183    0.07623    1.000
    C344     C        0.38027    0.93454    0.06380    1.000
    H189     H        0.42967    0.97483    0.06143    1.000
    H190     H        0.31137    0.01923    0.26903    1.000
    C345     C        0.27927    0.96854    0.25715    1.000
    H191     H        0.25687    0.91923    0.23993    1.000
    H192     H        0.77207    0.17443    0.61683    1.000
    C346     C        0.78784    0.20856    0.58026    1.000
    H193     H        0.79537    0.23313    0.53813    1.000
    H194     H        0.66977    0.97803    0.59813    1.000
    C347     C        0.62172    0.95961    0.57928    1.000
    H195     H        0.58017    0.95163    0.55363    1.000
    C348     C        0.37747    0.92411    0.02993    1.000
    C349     C        0.24933    0.96389    0.27475    1.000
    C350     C        0.81737    0.24173    0.59763    1.000
    C351     C        0.60332    0.92605    0.59647    1.000
    O73      O        0.40495    0.93505    0.01384    1.000
    O74      O        0.34829    0.90274    0.01796    1.000
    O75      O        0.22627    0.93337    0.28420    1.000
    O76      O        0.24232    0.98678    0.27977    1.000
    O77      O        0.83058    0.26922    0.58753    1.000
    O78      O        0.81927    0.23373    0.62623    1.000
    In10     In       0.37841    0.90505    0.97116    1.000
    O79      O        0.33928    0.84880    0.96274    1.000
    O80      O        0.38241    0.86110    0.99466    1.000
    C352     C        0.35679    0.83932    0.97883    1.000
    C353     C        0.34959    0.80240    0.97880    1.000
    C354     C        0.37255    0.79443    0.99422    1.000
    C355     C        0.32212    0.77694    0.96106    1.000
    H196     H        0.39097    0.81153    0.00613    1.000
    C356     C        0.36804    0.76099    0.99190    1.000
    C357     C        0.31762    0.74352    0.95875    1.000
    H197     H        0.30677    0.78233    0.95073    1.000
    H198     H        0.38337    0.75563    0.00223    1.000
    C358     C        0.34058    0.73554    0.97416    1.000
    H199     H        0.29927    0.72653    0.94683    1.000
    C359     C        0.33607    0.69913    0.97113    1.000
    C360     C        0.36587    0.69573    0.97127    1.000
    H200     H        0.38787    0.71553    0.97143    1.000
    In11     In       0.29290    0.42762    0.62572    1.000
    O81      O        0.25949    0.41740    0.58080    1.000
    O82      O        0.23497    0.39147    0.62490    1.000
    O83      O        0.33362    0.44519    0.66478    1.000
    O84      O        0.28040    0.40692    0.67593    1.000
    O85      O        0.32276    0.48389    0.60956    1.000
    O86      O        0.27944    0.46785    0.64279    1.000
    O87      O        0.29537    0.37788    0.61492    1.000
    O88      O        0.33370    0.42827    0.59301    1.000
    C361     C        0.23140    0.39676    0.59601    1.000
    C362     C        0.31177    0.42635    0.68504    1.000
    C363     C        0.30420    0.49239    0.62665    1.000
    C364     C        0.19735    0.38000    0.58041    1.000
    C365     C        0.32084    0.42599    0.71822    1.000
    C366     C        0.31027    0.52821    0.62639    1.000
    C367     C        0.16775    0.36138    0.59910    1.000
    C368     C        0.19395    0.38170    0.54789    1.000
    C369     C        0.35451    0.44810    0.72895    1.000
    C370     C        0.29518    0.40399    0.73954    1.000
    C371     C        0.33929    0.55435    0.61058    1.000
    C372     C        0.28702    0.53637    0.64166    1.000
    H201     H        0.17003    0.36027    0.62087    1.000
    C373     C        0.13476    0.34446    0.58526    1.000
    C374     C        0.16096    0.36478    0.53405    1.000
    H202     H        0.21373    0.39417    0.53537    1.000
    H203     H        0.37143    0.46347    0.71487    1.000
    C375     C        0.36356    0.44789    0.76003    1.000
    C376     C        0.30426    0.40407    0.77071    1.000
    H204     H        0.27223    0.38947    0.73287    1.000
    H205     H        0.35463    0.54917    0.60007    1.000
    C377     C        0.34487    0.58744    0.61074    1.000
    C378     C        0.29294    0.56970    0.64048    1.000
    H206     H        0.26773    0.51917    0.65247    1.000
    H207     H        0.11493    0.33197    0.59777    1.000
    C379     C        0.13137    0.34617    0.55273    1.000
    H208     H        0.15873    0.36597    0.51227    1.000
    H209     H        0.38643    0.46247    0.76667    1.000
    C380     C        0.33822    0.42566    0.78135    1.000
    H210     H        0.28723    0.38927    0.78497    1.000
    H211     H        0.36483    0.60487    0.60087    1.000
    C381     C        0.32174    0.59657    0.62518    1.000
    H212     H        0.27713    0.57477    0.65027    1.000
    C382     C        0.09550    0.32900    0.53804    1.000
    C383     C        0.34688    0.42402    0.81587    1.000
    C384     C        0.32719    0.63237    0.62375    1.000
    C385     C        0.09083    0.31587    0.50745    1.000
    C386     C        0.06747    0.32758    0.55435    1.000
    C387     C        0.37094    0.45424    0.83100    1.000
    C388     C        0.33029    0.39253    0.83105    1.000
    C389     C        0.29996    0.63897    0.62423    1.000
    H213     H        0.10953    0.31677    0.49657    1.000
    C390     C        0.05814    0.30136    0.49317    1.000
    C391     C        0.03478    0.31307    0.54006    1.000
    H214     H        0.07063    0.33637    0.57477    1.000
    H215     H        0.38133    0.47557    0.82047    1.000
    C392     C        0.37944    0.45228    0.86259    1.000
    C393     C        0.33815    0.38999    0.86270    1.000
    H216     H        0.31373    0.37277    0.82037    1.000
    H217     H        0.27723    0.62017    0.62487    1.000
    C394     C        0.03011    0.29995    0.50947    1.000
    C395     C        0.05340    0.28924    0.45946    1.000
    C396     C        0.00445    0.31017    0.55814    1.000
    C397     C        0.36285    0.41999    0.87789    1.000
    C398     C        0.40454    0.48416    0.88023    1.000
    C399     C        0.32073    0.35592    0.87971    1.000
    H218     H        0.00823    0.29017    0.49987    1.000
    C400     C        0.02206    0.26404    0.44771    1.000
    C401     C        0.08156    0.30470    0.43913    1.000
    C402     C        0.00614    0.33804    0.57496    1.000
    C403     C        0.97350    0.27815    0.55750    1.000
    H219     H        0.36853    0.41857    0.89877    1.000
    C404     C        0.41006    0.48104    0.91212    1.000
    C405     C        0.42400    0.51615    0.86501    1.000
    C406     C        0.33987    0.34830    0.90134    1.000
    C407     C        0.28676    0.33220    0.87432    1.000
    H220     H        0.00263    0.25417    0.46097    1.000
    C408     C        0.01828    0.25274    0.41695    1.000
    C409     C        0.07783    0.29567    0.40867    1.000
    H221     H        0.10333    0.32157    0.44667    1.000
    H222     H        0.02683    0.35947    0.57537    1.000
    C410     C        0.97688    0.33389    0.59113    1.000
    C411     C        0.94424    0.27401    0.57368    1.000
    H223     H        0.97233    0.25947    0.54627    1.000
    H224     H        0.39703    0.45967    0.92227    1.000
    C412     C        0.43503    0.50987    0.92881    1.000
    C413     C        0.44898    0.54502    0.88170    1.000
    H225     H        0.42033    0.51827    0.84367    1.000
    H226     H        0.36333    0.36427    0.90497    1.000
    C414     C        0.32358    0.31668    0.91739    1.000
    C415     C        0.27027    0.30075    0.89079    1.000
    H227     H        0.27423    0.33697    0.85937    1.000
    H228     H        0.99673    0.23517    0.40957    1.000
    C416     C        0.04693    0.26788    0.39714    1.000
    H229     H        0.09633    0.30817    0.39477    1.000
    H230     H        0.97803    0.35257    0.60237    1.000
    C417     C        0.94593    0.30188    0.59049    1.000
    H231     H        0.92353    0.25257    0.57327    1.000
    H232     H        0.43873    0.50777    0.95017    1.000
    C418     C        0.45450    0.54190    0.91360    1.000
    H233     H        0.46203    0.56647    0.87147    1.000
    H234     H        0.33643    0.31137    0.93147    1.000
    C419     C        0.28838    0.29295    0.91262    1.000
    H235     H        0.24683    0.28497    0.88697    1.000
    C420     C        0.04413    0.25745    0.36327    1.000
    C421     C        0.91599    0.29723    0.60809    1.000
    C422     C        0.48403    0.57507    0.93097    1.000
    C423     C        0.26998    0.25939    0.92981    1.000
    O89      O        0.07161    0.26839    0.34718    1.000
    O90      O        0.01495    0.23608    0.35130    1.000
    O91      O        0.89293    0.26671    0.61754    1.000
    O92      O        0.90898    0.32012    0.61311    1.000
    O93      O        0.49724    0.60256    0.92087    1.000
    O94      O        0.48593    0.56707    0.95957    1.000
    In12     In       0.04508    0.23839    0.30449    1.000
    O95      O        0.00594    0.18214    0.29608    1.000
    O96      O        0.04907    0.19444    0.32800    1.000
    C424     C        0.02345    0.17266    0.31217    1.000
    C425     C        0.01625    0.13574    0.31214    1.000
    C426     C        0.03921    0.12777    0.32756    1.000
    C427     C        0.98878    0.11028    0.29440    1.000
    H236     H        0.05763    0.14487    0.33947    1.000
    C428     C        0.03470    0.09433    0.32524    1.000
    C429     C        0.98428    0.07686    0.29209    1.000
    H237     H        0.97343    0.11567    0.28407    1.000
    H238     H        0.05003    0.08897    0.33557    1.000
    C430     C        0.00724    0.06888    0.30750    1.000
    H239     H        0.96593    0.05987    0.28017    1.000
    C431     C        0.00273    0.03247    0.30447    1.000
    C432     C        0.03253    0.02907    0.30461    1.000
    H240     H        0.05453    0.04887    0.30477    1.000
    In13     In       0.23905    0.19862    0.95905    1.000
    O97      O        0.24927    0.17543    0.91413    1.000
    O98      O        0.27520    0.17684    0.95823    1.000
    O99      O        0.22148    0.22177    0.99811    1.000
    O100     O        0.25975    0.20682    0.00926    1.000
    O101     O        0.18278    0.17221    0.94289    1.000
    O102     O        0.19882    0.14493    0.97612    1.000
    O103     O        0.28879    0.25083    0.94825    1.000
    O104     O        0.23840    0.23877    0.92634    1.000
    C433     C        0.26991    0.16798    0.92934    1.000
    C434     C        0.24032    0.21876    0.01837    1.000
    C435     C        0.17428    0.14515    0.95998    1.000
    C436     C        0.28667    0.15069    0.91374    1.000
    C437     C        0.24068    0.22819    0.05155    1.000
    C438     C        0.13846    0.11540    0.95972    1.000
    C439     C        0.30529    0.13971    0.93243    1.000
    C440     C        0.28497    0.14559    0.88122    1.000
    C441     C        0.21857    0.23975    0.06228    1.000
    C442     C        0.26268    0.22453    0.07287    1.000
    C443     C        0.11232    0.11828    0.94391    1.000
    C444     C        0.13030    0.08399    0.97499    1.000
    H241     H        0.30640    0.14310    0.95420    1.000
    C445     C        0.32221    0.12364    0.91859    1.000
    C446     C        0.30189    0.12952    0.86738    1.000
    H242     H        0.27250    0.15290    0.86870    1.000
    H243     H        0.20320    0.24130    0.04820    1.000
    C447     C        0.21878    0.24901    0.09336    1.000
    C448     C        0.26260    0.23353    0.10404    1.000
    H244     H        0.27720    0.21610    0.06620    1.000
    H245     H        0.11750    0.13880    0.93340    1.000
    C449     C        0.07923    0.09077    0.94407    1.000
    C450     C        0.09697    0.05658    0.97381    1.000
    H246     H        0.14750    0.08190    0.98580    1.000
    H247     H        0.33470    0.11630    0.93110    1.000
    C451     C        0.32050    0.11854    0.88606    1.000
    H248     H        0.30070    0.12610    0.84560    1.000
    H249     H        0.20420    0.25730    0.10000    1.000
    C452     C        0.24101    0.24590    0.11468    1.000
    H250     H        0.27740    0.23130    0.11830    1.000
    H251     H        0.06180    0.09330    0.93420    1.000
    C453     C        0.07010    0.05851    0.95851    1.000
    H252     H        0.09190    0.03570    0.98360    1.000
    C454     C        0.33767    0.09984    0.87137    1.000
    C455     C        0.24265    0.25620    0.14920    1.000
    C456     C        0.03430    0.02816    0.95708    1.000
    C457     C        0.35080    0.10830    0.84078    1.000
    C458     C        0.33909    0.07323    0.88768    1.000
    C459     C        0.21243    0.25004    0.16433    1.000
    C460     C        0.27414    0.27110    0.16438    1.000
    C461     C        0.02770    0.99433    0.95756    1.000
    H253     H        0.34990    0.12610    0.82990    1.000
    C462     C        0.36531    0.09012    0.82650    1.000
    C463     C        0.35360    0.05505    0.87339    1.000
    H254     H        0.33030    0.06760    0.90810    1.000
    H255     H        0.19110    0.23910    0.15380    1.000
    C464     C        0.21439    0.26050    0.19592    1.000
    C465     C        0.27668    0.28150    0.19603    1.000
    H256     H        0.29390    0.27430    0.15370    1.000
    H257     H        0.04650    0.99040    0.95820    1.000
    C466     C        0.36672    0.06350    0.84280    1.000
    C467     C        0.37743    0.09750    0.79279    1.000
    C468     C        0.35650    0.02762    0.89147    1.000
    C469     C        0.24668    0.27620    0.21122    1.000
    C470     C        0.18251    0.25372    0.21356    1.000
    C471     C        0.31075    0.29815    0.21304    1.000
    H258     H        0.37650    0.05140    0.83320    1.000
    C472     C        0.40263    0.09136    0.78104    1.000
    C473     C        0.36197    0.11020    0.77246    1.000
    C474     C        0.32863    0.00144    0.90829    1.000
    C475     C        0.38852    0.02869    0.89083    1.000
    H259     H        0.24810    0.28330    0.23210    1.000
    C476     C        0.18563    0.26236    0.24545    1.000
    C477     C        0.15052    0.24119    0.19834    1.000
    C478     C        0.31837    0.32491    0.23467    1.000
    C479     C        0.33447    0.28790    0.20765    1.000
    H260     H        0.41250    0.08180    0.79430    1.000
    C480     C        0.41393    0.09888    0.75028    1.000
    C481     C        0.37100    0.11550    0.74200    1.000
    H261     H        0.34510    0.11510    0.78000    1.000
    H262     H        0.30720    0.00070    0.90870    1.000
    C482     C        0.33278    0.97633    0.92446    1.000
    C483     C        0.39266    0.00357    0.90701    1.000
    H263     H        0.40720    0.04620    0.87960    1.000
    H264     H        0.20700    0.27070    0.25560    1.000
    C484     C        0.15680    0.25850    0.26214    1.000
    C485     C        0.12165    0.23730    0.21503    1.000
    H265     H        0.14840    0.23540    0.17700    1.000
    H266     H        0.30240    0.33240    0.23830    1.000
    C486     C        0.34999    0.34024    0.25072    1.000
    C487     C        0.36592    0.30286    0.22412    1.000
    H267     H        0.32970    0.27060    0.19270    1.000
    H268     H        0.43150    0.09490    0.74290    1.000
    C488     C        0.39879    0.11239    0.73047    1.000
    H269     H        0.35850    0.12150    0.72810    1.000
    H270     H        0.31410    0.95880    0.93570    1.000
    C489     C        0.36479    0.97739    0.92382    1.000
    H271     H        0.41410    0.00430    0.90660    1.000
    H272     H        0.15890    0.26430    0.28350    1.000
    C490     C        0.12477    0.24594    0.24693    1.000
    H273     H        0.10020    0.22890    0.20480    1.000
    H274     H        0.35530    0.35840    0.26480    1.000
    C491     C        0.37372    0.32877    0.24595    1.000
    H275     H        0.38170    0.29520    0.22030    1.000
    C492     C        0.40922    0.12002    0.69660    1.000
    C493     C        0.36944    0.95210    0.94142    1.000
    C494     C        0.09160    0.24230    0.26430    1.000
    C495     C        0.40728    0.34393    0.26314    1.000
    O105     O        0.39828    0.13656    0.68051    1.000
    O106     O        0.43059    0.11221    0.68463    1.000
    O107     O        0.39996    0.95956    0.95087    1.000
    O108     O        0.34655    0.92220    0.94644    1.000
    O109     O        0.06411    0.22802    0.25420    1.000
    O110     O        0.09960    0.25220    0.29290    1.000
    In14     In       0.42828    0.14002    0.63782    1.000
    O111     O        0.48453    0.15714    0.62941    1.000
    O112     O        0.47223    0.18797    0.66133    1.000
    C496     C        0.49401    0.18413    0.64550    1.000
    C497     C        0.53093    0.21385    0.64547    1.000
    C498     C        0.53890    0.24478    0.66089    1.000
    C499     C        0.55639    0.21184    0.62773    1.000
    H276     H        0.52180    0.24610    0.67280    1.000
    C500     C        0.57234    0.27371    0.65857    1.000
    C501     C        0.58981    0.24076    0.62542    1.000
    H277     H        0.55100    0.19110    0.61740    1.000
    H278     H        0.57770    0.29440    0.66890    1.000
    C502     C        0.59779    0.27170    0.64083    1.000
    H279     H        0.60680    0.23940    0.61350    1.000
    C503     C        0.63420    0.30360    0.63780    1.000
    C504     C        0.63760    0.33680    0.63794    1.000
    H280     H        0.61780    0.33900    0.63810    1.000
    In15     In       0.90572    0.53195    0.29239    1.000
    O113     O        0.91594    0.50876    0.24746    1.000
    O114     O        0.94187    0.51017    0.29156    1.000
    O115     O        0.88815    0.55510    0.33144    1.000
    O116     O        0.92642    0.54015    0.34259    1.000
    O117     O        0.84945    0.50554    0.27622    1.000
    O118     O        0.86549    0.47826    0.30945    1.000
    O119     O        0.95546    0.58416    0.28158    1.000
    O120     O        0.90507    0.57210    0.25967    1.000
    C505     C        0.93658    0.50131    0.26267    1.000
    C506     C        0.90699    0.55209    0.35170    1.000
    C507     C        0.84095    0.47848    0.29331    1.000
    C508     C        0.95334    0.48402    0.24707    1.000
    C509     C        0.90735    0.56152    0.38488    1.000
    C510     C        0.80513    0.44873    0.29305    1.000
    C511     C        0.97196    0.47304    0.26576    1.000
    C512     C        0.95164    0.47892    0.21455    1.000
    C513     C        0.88524    0.57308    0.39561    1.000
    C514     C        0.92935    0.55786    0.40620    1.000
    C515     C        0.77899    0.45161    0.27724    1.000
    C516     C        0.79697    0.41732    0.30832    1.000
    H281     H        0.97307    0.47643    0.28753    1.000
    C517     C        0.98888    0.45697    0.25192    1.000
    C518     C        0.96856    0.46285    0.20071    1.000
    H282     H        0.93917    0.48623    0.20203    1.000
    H283     H        0.86987    0.57463    0.38153    1.000
    C519     C        0.88545    0.58234    0.42669    1.000
    C520     C        0.92927    0.56686    0.43737    1.000
    H284     H        0.94387    0.54943    0.39953    1.000
    H285     H        0.78417    0.47213    0.26673    1.000
    C521     C        0.74590    0.42410    0.27740    1.000
    C522     C        0.76364    0.38991    0.30714    1.000
    H286     H        0.81417    0.41523    0.31913    1.000
    H287     H        0.00137    0.44963    0.26443    1.000
    C523     C        0.98717    0.45187    0.21939    1.000
    H288     H        0.96737    0.45943    0.17893    1.000
    H289     H        0.87087    0.59063    0.43333    1.000
    C524     C        0.90768    0.57923    0.44801    1.000
    H290     H        0.94407    0.56463    0.45163    1.000
    H291     H        0.72847    0.42663    0.26753    1.000
    C525     C        0.73677    0.39184    0.29184    1.000
    H292     H        0.75857    0.36903    0.31693    1.000
    C526     C        0.00434    0.43317    0.20470    1.000
    C527     C        0.90932    0.58953    0.48253    1.000
    C528     C        0.70097    0.36149    0.29041    1.000
    C529     C        0.01747    0.44163    0.17411    1.000
    C530     C        0.00576    0.40656    0.22101    1.000
    C531     C        0.87910    0.58337    0.49766    1.000
    C532     C        0.94081    0.60443    0.49771    1.000
    C533     C        0.69437    0.32766    0.29089    1.000
    H293     H        0.01657    0.45943    0.16323    1.000
    C534     C        0.03198    0.42345    0.15983    1.000
    C535     C        0.02027    0.38838    0.20672    1.000
    H294     H        0.99697    0.40093    0.24143    1.000
    H295     H        0.85777    0.57243    0.48713    1.000
    C536     C        0.88106    0.59383    0.52925    1.000
    C537     C        0.94335    0.61483    0.52936    1.000
    H296     H        0.96057    0.60763    0.48703    1.000
    H297     H        0.71317    0.32373    0.29153    1.000
    C538     C        0.03339    0.39683    0.17613    1.000
    C539     C        0.04410    0.43083    0.12612    1.000
    C540     C        0.02317    0.36095    0.22480    1.000
    C541     C        0.91335    0.60953    0.54455    1.000
    C542     C        0.84918    0.58705    0.54689    1.000
    C543     C        0.97742    0.63148    0.54637    1.000
    H298     H        0.04317    0.38473    0.16653    1.000
    C544     C        0.06930    0.42469    0.11437    1.000
    C545     C        0.02864    0.44353    0.10579    1.000
    C546     C        0.99530    0.33477    0.24162    1.000
    C547     C        0.05519    0.36202    0.22416    1.000
    H299     H        0.91477    0.61663    0.56543    1.000
    C548     C        0.85230    0.59569    0.57878    1.000
    C549     C        0.81719    0.57452    0.53167    1.000
    C550     C        0.98504    0.65824    0.56800    1.000
    C551     C        0.00114    0.62123    0.54098    1.000
    H300     H        0.07917    0.41513    0.12763    1.000
    C552     C        0.08060    0.43221    0.08361    1.000
    C553     C        0.03767    0.44883    0.07533    1.000
    H301     H        0.01177    0.44843    0.11333    1.000
    H302     H        0.97387    0.33403    0.24203    1.000
    C554     C        0.99945    0.30966    0.25779    1.000
    C555     C        0.05933    0.33690    0.24034    1.000
    H303     H        0.07387    0.37953    0.21293    1.000
    H304     H        0.87367    0.60403    0.58893    1.000
    C556     C        0.82347    0.59183    0.59547    1.000
    C557     C        0.78832    0.57063    0.54836    1.000
    H305     H        0.81507    0.56873    0.51033    1.000
    H306     H        0.96907    0.66573    0.57163    1.000
    C558     C        0.01666    0.67357    0.58405    1.000
    C559     C        0.03259    0.63619    0.55745    1.000
    H307     H        0.99637    0.60393    0.52603    1.000
    H308     H        0.09817    0.42823    0.07623    1.000
    C560     C        0.06546    0.44572    0.06380    1.000
    H309     H        0.02517    0.45483    0.06143    1.000
    H310     H        0.98077    0.29213    0.26903    1.000
    C561     C        0.03146    0.31072    0.25715    1.000
    H311     H        0.08077    0.33763    0.23993    1.000
    H312     H        0.82557    0.59763    0.61683    1.000
    C562     C        0.79144    0.57927    0.58026    1.000
    H313     H        0.76687    0.56223    0.53813    1.000
    H314     H        0.02197    0.69173    0.59813    1.000
    C563     C        0.04039    0.66210    0.57928    1.000
    H315     H        0.04837    0.62853    0.55363    1.000
    C564     C        0.07589    0.45335    0.02993    1.000
    C565     C        0.03611    0.28543    0.27475    1.000
    C566     C        0.75827    0.57563    0.59763    1.000
    C567     C        0.07395    0.67726    0.59647    1.000
    O121     O        0.06495    0.46989    0.01384    1.000
    O122     O        0.09726    0.44554    0.01796    1.000
    O123     O        0.06663    0.29289    0.28420    1.000
    O124     O        0.01322    0.25553    0.27977    1.000
    O125     O        0.73078    0.56135    0.58753    1.000
    O126     O        0.76627    0.58553    0.62623    1.000
    In16     In       0.09495    0.47336    0.97116    1.000
    O127     O        0.15120    0.49047    0.96274    1.000
    O128     O        0.13890    0.52130    0.99466    1.000
    C568     C        0.16068    0.51746    0.97883    1.000
    C569     C        0.19760    0.54718    0.97880    1.000
    C570     C        0.20557    0.57811    0.99422    1.000
    C571     C        0.22306    0.54517    0.96106    1.000
    H316     H        0.18847    0.57943    0.00613    1.000
    C572     C        0.23901    0.60704    0.99190    1.000
    C573     C        0.25648    0.57409    0.95875    1.000
    H317     H        0.21767    0.52443    0.95073    1.000
    H318     H        0.24437    0.62773    0.00223    1.000
    C574     C        0.26446    0.60503    0.97416    1.000
    H319     H        0.27347    0.57273    0.94683    1.000
    C575     C        0.30087    0.63693    0.97113    1.000
    C576     C        0.30427    0.67013    0.97127    1.000
    H320     H        0.28447    0.67233    0.97143    1.000
    In17     In       0.57238    0.86529    0.62572    1.000
    O129     O        0.58260    0.84210    0.58080    1.000
    O130     O        0.60853    0.84351    0.62490    1.000
    O131     O        0.55481    0.88844    0.66478    1.000
    O132     O        0.59308    0.87349    0.67593    1.000
    O133     O        0.51611    0.83888    0.60956    1.000
    O134     O        0.53215    0.81160    0.64279    1.000
    O135     O        0.62212    0.91750    0.61492    1.000
    O136     O        0.57173    0.90544    0.59301    1.000
    C577     C        0.60324    0.83465    0.59601    1.000
    C578     C        0.57365    0.88543    0.68504    1.000
    C579     C        0.50761    0.81182    0.62665    1.000
    C580     C        0.62000    0.81736    0.58041    1.000
    C581     C        0.57401    0.89486    0.71822    1.000
    C582     C        0.47179    0.78207    0.62639    1.000
    C583     C        0.63862    0.80638    0.59910    1.000
    C584     C        0.61830    0.81226    0.54789    1.000
    C585     C        0.55190    0.90642    0.72895    1.000
    C586     C        0.59601    0.89120    0.73954    1.000
    C587     C        0.44565    0.78495    0.61058    1.000
    C588     C        0.46363    0.75066    0.64166    1.000
    H321     H        0.63973    0.80977    0.62087    1.000
    C589     C        0.65554    0.79031    0.58526    1.000
    C590     C        0.63522    0.79619    0.53405    1.000
    H322     H        0.60583    0.81957    0.53537    1.000
    H323     H        0.53653    0.90797    0.71487    1.000
    C591     C        0.55211    0.91568    0.76003    1.000
    C592     C        0.59593    0.90020    0.77071    1.000
    H324     H        0.61053    0.88277    0.73287    1.000
    H325     H        0.45083    0.80547    0.60007    1.000
    C593     C        0.41256    0.75744    0.61074    1.000
    C594     C        0.43030    0.72325    0.64048    1.000
    H326     H        0.48083    0.74857    0.65247    1.000
    H327     H        0.66803    0.78297    0.59777    1.000
    C595     C        0.65383    0.78521    0.55273    1.000
    H328     H        0.63403    0.79277    0.51227    1.000
    H329     H        0.53753    0.92397    0.76667    1.000
    C596     C        0.57434    0.91257    0.78135    1.000
    H330     H        0.61073    0.89797    0.78497    1.000
    H331     H        0.39513    0.75997    0.60087    1.000
    C597     C        0.40343    0.72518    0.62518    1.000
    H332     H        0.42523    0.70237    0.65027    1.000
    C598     C        0.67100    0.76651    0.53804    1.000
    C599     C        0.57598    0.92287    0.81587    1.000
    C600     C        0.36763    0.69483    0.62375    1.000
    C601     C        0.68413    0.77497    0.50745    1.000
    C602     C        0.67242    0.73990    0.55435    1.000
    C603     C        0.54576    0.91671    0.83100    1.000
    C604     C        0.60747    0.93777    0.83105    1.000
    C605     C        0.36103    0.66100    0.62423    1.000
    H333     H        0.68323    0.79277    0.49657    1.000
    C606     C        0.69864    0.75679    0.49317    1.000
    C607     C        0.68693    0.72172    0.54006    1.000
    H334     H        0.66363    0.73427    0.57477    1.000
    H335     H        0.52443    0.90577    0.82047    1.000
    C608     C        0.54772    0.92717    0.86259    1.000
    C609     C        0.61001    0.94817    0.86270    1.000
    H336     H        0.62723    0.94097    0.82037    1.000
    H337     H        0.37983    0.65707    0.62487    1.000
    C610     C        0.70005    0.73017    0.50947    1.000
    C611     C        0.71076    0.76417    0.45946    1.000
    C612     C        0.68983    0.69429    0.55814    1.000
    C613     C        0.58001    0.94287    0.87789    1.000
    C614     C        0.51584    0.92039    0.88023    1.000
    C615     C        0.64408    0.96482    0.87971    1.000
    H338     H        0.70983    0.71807    0.49987    1.000
    C616     C        0.73596    0.75803    0.44771    1.000
    C617     C        0.69530    0.77687    0.43913    1.000
    C618     C        0.66196    0.66811    0.57496    1.000
    C619     C        0.72185    0.69536    0.55750    1.000
    H339     H        0.58143    0.94997    0.89877    1.000
    C620     C        0.51896    0.92903    0.91212    1.000
    C621     C        0.48385    0.90786    0.86501    1.000
    C622     C        0.65170    0.99158    0.90134    1.000
    C623     C        0.66780    0.95457    0.87432    1.000
    H340     H        0.74583    0.74847    0.46097    1.000
    C624     C        0.74726    0.76555    0.41695    1.000
    C625     C        0.70433    0.78217    0.40867    1.000
    H341     H        0.67843    0.78177    0.44667    1.000
    H342     H        0.64053    0.66737    0.57537    1.000
    C626     C        0.66611    0.64300    0.59113    1.000
    C627     C        0.72599    0.67024    0.57368    1.000
    H343     H        0.74053    0.71287    0.54627    1.000
    H344     H        0.54033    0.93737    0.92227    1.000
    C628     C        0.49013    0.92517    0.92881    1.000
    C629     C        0.45498    0.90397    0.88170    1.000
    H345     H        0.48173    0.90207    0.84367    1.000
    H346     H        0.63573    0.99907    0.90497    1.000
    C630     C        0.68332    0.00691    0.91739    1.000
    C631     C        0.69925    0.96953    0.89079    1.000
    H347     H        0.66303    0.93727    0.85937    1.000
    H348     H        0.76483    0.76157    0.40957    1.000
    C632     C        0.73212    0.77906    0.39714    1.000
    H349     H        0.69183    0.78817    0.39477    1.000
    H350     H        0.64743    0.62547    0.60237    1.000
    C633     C        0.69812    0.64406    0.59049    1.000
    H351     H        0.74743    0.67097    0.57327    1.000
    H352     H        0.49223    0.93097    0.95017    1.000
    C634     C        0.45810    0.91261    0.91360    1.000
    H353     H        0.43353    0.89557    0.87147    1.000
    H354     H        0.68863    0.02507    0.93147    1.000
    C635     C        0.70705    0.99544    0.91262    1.000
    H355     H        0.71503    0.96187    0.88697    1.000
    C636     C        0.74255    0.78669    0.36327    1.000
    C637     C        0.70277    0.61877    0.60809    1.000
    C638     C        0.42493    0.90897    0.93097    1.000
    C639     C        0.74061    0.01060    0.92981    1.000
    O137     O        0.73161    0.80323    0.34718    1.000
    O138     O        0.76392    0.77888    0.35130    1.000
    O139     O        0.73329    0.62623    0.61754    1.000
    O140     O        0.67988    0.58887    0.61311    1.000
    O141     O        0.39744    0.89469    0.92087    1.000
    O142     O        0.43293    0.91887    0.95957    1.000
    In18     In       0.76161    0.80669    0.30449    1.000
    O143     O        0.81786    0.82381    0.29608    1.000
    O144     O        0.80556    0.85464    0.32800    1.000
    C640     C        0.82734    0.85080    0.31217    1.000
    C641     C        0.86426    0.88052    0.31214    1.000
    C642     C        0.87223    0.91145    0.32756    1.000
    C643     C        0.88972    0.87851    0.29440    1.000
    H356     H        0.85513    0.91277    0.33947    1.000
    C644     C        0.90567    0.94038    0.32524    1.000
    C645     C        0.92314    0.90743    0.29209    1.000
    H357     H        0.88433    0.85777    0.28407    1.000
    H358     H        0.91103    0.96107    0.33557    1.000
    C646     C        0.93112    0.93837    0.30750    1.000
    H359     H        0.94013    0.90607    0.28017    1.000
    C647     C        0.96753    0.97027    0.30447    1.000
    C648     C        0.97093    0.00347    0.30461    1.000
    H360     H        0.95113    0.00567    0.30477    1.000
    In19     In       0.19862    0.95957    0.04095    1.000
    O145     O        0.17543    0.92616    0.08587    1.000
    O146     O        0.17684    0.90164    0.04177    1.000
    O147     O        0.22177    0.00029    0.00189    1.000
    O148     O        0.20682    0.94707    0.99074    1.000
    O149     O        0.17221    0.98943    0.05711    1.000
    O150     O        0.14493    0.94611    0.02388    1.000
    O151     O        0.25083    0.96204    0.05175    1.000
    O152     O        0.23877    0.00037    0.07366    1.000
    C649     C        0.16798    0.89807    0.07066    1.000
    C650     C        0.21876    0.97844    0.98163    1.000
    C651     C        0.14515    0.97087    0.04002    1.000
    C652     C        0.15069    0.86402    0.08626    1.000
    C653     C        0.22819    0.98751    0.94845    1.000
    C654     C        0.11540    0.97694    0.04028    1.000
    C655     C        0.13971    0.83442    0.06757    1.000
    C656     C        0.14559    0.86062    0.11878    1.000
    C657     C        0.23975    0.02118    0.93772    1.000
    C658     C        0.22453    0.96185    0.92713    1.000
    C659     C        0.11828    0.00596    0.05609    1.000
    C660     C        0.08399    0.95369    0.02501    1.000
    H361     H        0.14310    0.83670    0.04580    1.000
    C661     C        0.12364    0.80143    0.08141    1.000
    C662     C        0.12952    0.82763    0.13262    1.000
    H362     H        0.15290    0.88040    0.13130    1.000
    H363     H        0.24130    0.03810    0.95180    1.000
    C663     C        0.24901    0.03023    0.90664    1.000
    C664     C        0.23353    0.97093    0.89596    1.000
    H364     H        0.21610    0.93890    0.93380    1.000
    H365     H        0.13880    0.02130    0.06660    1.000
    C665     C        0.09077    0.01154    0.05593    1.000
    C666     C        0.05658    0.95961    0.02619    1.000
    H366     H        0.08190    0.93440    0.01420    1.000
    H367     H        0.11630    0.78160    0.06890    1.000
    C667     C        0.11854    0.79804    0.11394    1.000
    H368     H        0.12610    0.82540    0.15440    1.000
    H369     H        0.25730    0.05310    0.90000    1.000
    C668     C        0.24590    0.00489    0.88532    1.000
    H370     H        0.23130    0.95390    0.88170    1.000
    H371     H        0.09330    0.03150    0.06580    1.000
    C669     C        0.05851    0.98841    0.04149    1.000
    H372     H        0.03570    0.94380    0.01640    1.000
    C670     C        0.09984    0.76217    0.12863    1.000
    C671     C        0.25620    0.01355    0.85080    1.000
    C672     C        0.02816    0.99386    0.04292    1.000
    C673     C        0.10830    0.75750    0.15922    1.000
    C674     C        0.07323    0.73414    0.11232    1.000
    C675     C        0.25004    0.03761    0.83567    1.000
    C676     C        0.27110    0.99696    0.83562    1.000
    C677     C        0.99433    0.96663    0.04244    1.000
    H373     H        0.12610    0.77620    0.17010    1.000
    C678     C        0.09012    0.72481    0.17350    1.000
    C679     C        0.05505    0.70145    0.12661    1.000
    H374     H        0.06760    0.73730    0.09190    1.000
    H375     H        0.23910    0.04800    0.84620    1.000
    C680     C        0.26050    0.04611    0.80408    1.000
    C681     C        0.28150    0.00482    0.80397    1.000
    H376     H        0.27430    0.98040    0.84630    1.000
    H377     H        0.99040    0.94390    0.04180    1.000
    C682     C        0.06350    0.69678    0.15720    1.000
    C683     C        0.09750    0.72007    0.20721    1.000
    C684     C        0.02762    0.67112    0.10853    1.000
    C685     C        0.27620    0.02952    0.78878    1.000
    C686     C        0.25372    0.07121    0.78644    1.000
    C687     C        0.29815    0.98740    0.78696    1.000
    H378     H        0.05140    0.67490    0.16680    1.000
    C688     C        0.09136    0.68873    0.21896    1.000
    C689     C        0.11020    0.74823    0.22754    1.000
    C690     C        0.00144    0.67281    0.09171    1.000
    C691     C        0.02869    0.64017    0.10917    1.000
    H379     H        0.28330    0.03520    0.76790    1.000
    C692     C        0.26236    0.07673    0.75455    1.000
    C693     C        0.24119    0.09067    0.80166    1.000
    C694     C        0.32491    0.00654    0.76533    1.000
    C695     C        0.28790    0.95343    0.79235    1.000
    H380     H        0.08180    0.66930    0.20570    1.000
    C696     C        0.09888    0.68495    0.24972    1.000
    C697     C        0.11550    0.74450    0.25800    1.000
    H381     H        0.11510    0.77000    0.22000    1.000
    H382     H        0.00070    0.69350    0.09130    1.000
    C698     C        0.97633    0.64355    0.07554    1.000
    C699     C        0.00357    0.61091    0.09299    1.000
    H383     H        0.04620    0.63900    0.12040    1.000
    H384     H        0.27070    0.06370    0.74440    1.000
    C700     C        0.25850    0.10170    0.73786    1.000
    C701     C        0.23730    0.11565    0.78497    1.000
    H385     H        0.23540    0.08700    0.82300    1.000
    H386     H        0.33240    0.03000    0.76170    1.000
    C702     C        0.34024    0.99025    0.74928    1.000
    C703     C        0.30286    0.93694    0.77588    1.000
    H387     H        0.27060    0.94090    0.80730    1.000
    H388     H        0.09490    0.66340    0.25710    1.000
    C704     C        0.11239    0.71360    0.26953    1.000
    H389     H        0.12150    0.76300    0.27190    1.000
    H390     H        0.95880    0.64470    0.06430    1.000
    C705     C        0.97739    0.61260    0.07618    1.000
    H391     H        0.00430    0.59020    0.09340    1.000
    H392     H        0.26430    0.10540    0.71650    1.000
    C706     C        0.24594    0.12117    0.75307    1.000
    H393     H        0.22890    0.12870    0.79520    1.000
    H394     H        0.35840    0.00310    0.73520    1.000
    C707     C        0.32877    0.95505    0.75405    1.000
    H395     H        0.29520    0.91350    0.77970    1.000
    C708     C        0.12002    0.71080    0.30340    1.000
    C709     C        0.95210    0.58266    0.05858    1.000
    C710     C        0.24230    0.15070    0.73570    1.000
    C711     C        0.34393    0.93665    0.73686    1.000
    O153     O        0.13656    0.73828    0.31949    1.000
    O154     O        0.11221    0.68162    0.31537    1.000
    O155     O        0.95956    0.55960    0.04913    1.000
    O156     O        0.92220    0.57565    0.05356    1.000
    O157     O        0.22802    0.16391    0.74580    1.000
    O158     O        0.25220    0.15260    0.70710    1.000
    In20     In       0.14002    0.71174    0.36218    1.000
    O159     O        0.15714    0.67261    0.37059    1.000
    O160     O        0.18797    0.71574    0.33867    1.000
    C712     C        0.18413    0.69012    0.35450    1.000
    C713     C        0.21385    0.68292    0.35453    1.000
    C714     C        0.24478    0.70588    0.33911    1.000
    C715     C        0.21184    0.65545    0.37227    1.000
    H396     H        0.24610    0.72430    0.32720    1.000
    C716     C        0.27371    0.70137    0.34143    1.000
    C717     C        0.24076    0.65095    0.37458    1.000
    H397     H        0.19110    0.64010    0.38260    1.000
    H398     H        0.29440    0.71670    0.33110    1.000
    C718     C        0.27170    0.67391    0.35917    1.000
    H399     H        0.23940    0.63260    0.38650    1.000
    C719     C        0.30360    0.66940    0.36220    1.000
    C720     C        0.33680    0.69920    0.36206    1.000
    H400     H        0.33900    0.72120    0.36190    1.000
    In21     In       0.86529    0.29290    0.37428    1.000
    O161     O        0.84210    0.25949    0.41920    1.000
    O162     O        0.84351    0.23497    0.37510    1.000
    O163     O        0.88844    0.33362    0.33522    1.000
    O164     O        0.87349    0.28040    0.32407    1.000
    O165     O        0.83888    0.32276    0.39044    1.000
    O166     O        0.81160    0.27944    0.35721    1.000
    O167     O        0.91750    0.29537    0.38508    1.000
    O168     O        0.90544    0.33370    0.40699    1.000
    C721     C        0.83465    0.23140    0.40399    1.000
    C722     C        0.88543    0.31177    0.31496    1.000
    C723     C        0.81182    0.30420    0.37335    1.000
    C724     C        0.81736    0.19735    0.41959    1.000
    C725     C        0.89486    0.32084    0.28178    1.000
    C726     C        0.78207    0.31027    0.37361    1.000
    C727     C        0.80638    0.16775    0.40090    1.000
    C728     C        0.81226    0.19395    0.45211    1.000
    C729     C        0.90642    0.35451    0.27105    1.000
    C730     C        0.89120    0.29518    0.26046    1.000
    C731     C        0.78495    0.33929    0.38942    1.000
    C732     C        0.75066    0.28702    0.35834    1.000
    H401     H        0.80977    0.17003    0.37913    1.000
    C733     C        0.79031    0.13476    0.41474    1.000
    C734     C        0.79619    0.16096    0.46595    1.000
    H402     H        0.81957    0.21373    0.46463    1.000
    H403     H        0.90797    0.37143    0.28513    1.000
    C735     C        0.91568    0.36356    0.23997    1.000
    C736     C        0.90020    0.30426    0.22929    1.000
    H404     H        0.88277    0.27223    0.26713    1.000
    H405     H        0.80547    0.35463    0.39993    1.000
    C737     C        0.75744    0.34487    0.38926    1.000
    C738     C        0.72325    0.29294    0.35952    1.000
    H406     H        0.74857    0.26773    0.34753    1.000
    H407     H        0.78297    0.11493    0.40223    1.000
    C739     C        0.78521    0.13137    0.44727    1.000
    H408     H        0.79277    0.15873    0.48773    1.000
    H409     H        0.92397    0.38643    0.23333    1.000
    C740     C        0.91257    0.33822    0.21865    1.000
    H410     H        0.89797    0.28723    0.21503    1.000
    H411     H        0.75997    0.36483    0.39913    1.000
    C741     C        0.72518    0.32174    0.37482    1.000
    H412     H        0.70237    0.27713    0.34973    1.000
    C742     C        0.76651    0.09550    0.46196    1.000
    C743     C        0.92287    0.34688    0.18413    1.000
    C744     C        0.69483    0.32719    0.37625    1.000
    C745     C        0.77497    0.09083    0.49255    1.000
    C746     C        0.73990    0.06747    0.44565    1.000
    C747     C        0.91671    0.37094    0.16900    1.000
    C748     C        0.93777    0.33029    0.16895    1.000
    C749     C        0.66100    0.29996    0.37577    1.000
    H413     H        0.79277    0.10953    0.50343    1.000
    C750     C        0.75679    0.05814    0.50683    1.000
    C751     C        0.72172    0.03478    0.45994    1.000
    H414     H        0.73427    0.07063    0.42523    1.000
    H415     H        0.90577    0.38133    0.17953    1.000
    C752     C        0.92717    0.37944    0.13741    1.000
    C753     C        0.94817    0.33815    0.13730    1.000
    H416     H        0.94097    0.31373    0.17963    1.000
    H417     H        0.65707    0.27723    0.37513    1.000
    C754     C        0.73017    0.03011    0.49053    1.000
    C755     C        0.76417    0.05340    0.54054    1.000
    C756     C        0.69429    0.00445    0.44186    1.000
    C757     C        0.94287    0.36285    0.12211    1.000
    C758     C        0.92039    0.40454    0.11977    1.000
    C759     C        0.96482    0.32073    0.12029    1.000
    H418     H        0.71807    0.00823    0.50013    1.000
    C760     C        0.75803    0.02206    0.55229    1.000
    C761     C        0.77687    0.08156    0.56087    1.000
    C762     C        0.66811    0.00614    0.42504    1.000
    C763     C        0.69536    0.97350    0.44250    1.000
    H419     H        0.94997    0.36853    0.10123    1.000
    C764     C        0.92903    0.41006    0.08788    1.000
    C765     C        0.90786    0.42400    0.13499    1.000
    C766     C        0.99158    0.33987    0.09866    1.000
    C767     C        0.95457    0.28676    0.12568    1.000
    H420     H        0.74847    0.00263    0.53903    1.000
    C768     C        0.76555    0.01828    0.58305    1.000
    C769     C        0.78217    0.07783    0.59133    1.000
    H421     H        0.78177    0.10333    0.55333    1.000
    H422     H        0.66737    0.02683    0.42463    1.000
    C770     C        0.64300    0.97688    0.40887    1.000
    C771     C        0.67024    0.94424    0.42632    1.000
    H423     H        0.71287    0.97233    0.45373    1.000
    H424     H        0.93737    0.39703    0.07773    1.000
    C772     C        0.92517    0.43503    0.07119    1.000
    C773     C        0.90397    0.44898    0.11830    1.000
    H425     H        0.90207    0.42033    0.15633    1.000
    H426     H        0.99907    0.36333    0.09503    1.000
    C774     C        0.00691    0.32358    0.08261    1.000
    C775     C        0.96953    0.27027    0.10921    1.000
    H427     H        0.93727    0.27423    0.14063    1.000
    H428     H        0.76157    0.99673    0.59043    1.000
    C776     C        0.77906    0.04693    0.60286    1.000
    H429     H        0.78817    0.09633    0.60523    1.000
    H430     H        0.62547    0.97803    0.39763    1.000
    C777     C        0.64406    0.94593    0.40951    1.000
    H431     H        0.67097    0.92353    0.42673    1.000
    H432     H        0.93097    0.43873    0.04983    1.000
    C778     C        0.91261    0.45450    0.08640    1.000
    H433     H        0.89557    0.46203    0.12853    1.000
    H434     H        0.02507    0.33643    0.06853    1.000
    C779     C        0.99544    0.28838    0.08738    1.000
    H435     H        0.96187    0.24683    0.11303    1.000
    C780     C        0.78669    0.04413    0.63673    1.000
    C781     C        0.61877    0.91599    0.39191    1.000
    C782     C        0.90897    0.48403    0.06903    1.000
    C783     C        0.01060    0.26998    0.07019    1.000
    O169     O        0.80323    0.07161    0.65282    1.000
    O170     O        0.77888    0.01495    0.64870    1.000
    O171     O        0.62623    0.89293    0.38246    1.000
    O172     O        0.58887    0.90898    0.38689    1.000
    O173     O        0.89469    0.49724    0.07913    1.000
    O174     O        0.91887    0.48593    0.04043    1.000
    In22     In       0.80669    0.04508    0.69551    1.000
    O175     O        0.82381    0.00594    0.70392    1.000
    O176     O        0.85464    0.04907    0.67200    1.000
    C784     C        0.85080    0.02345    0.68783    1.000
    C785     C        0.88052    0.01625    0.68786    1.000
    C786     C        0.91145    0.03921    0.67244    1.000
    C787     C        0.87851    0.98878    0.70560    1.000
    H436     H        0.91277    0.05763    0.66053    1.000
    C788     C        0.94038    0.03470    0.67476    1.000
    C789     C        0.90743    0.98428    0.70791    1.000
    H437     H        0.85777    0.97343    0.71593    1.000
    H438     H        0.96107    0.05003    0.66443    1.000
    C790     C        0.93837    0.00724    0.69250    1.000
    H439     H        0.90607    0.96593    0.71983    1.000
    C791     C        0.97027    0.00273    0.69553    1.000
    C792     C        0.00347    0.03253    0.69539    1.000
    H440     H        0.00567    0.05453    0.69523    1.000
    In23     In       0.53195    0.62624    0.70761    1.000
    O177     O        0.50876    0.59283    0.75254    1.000
    O178     O        0.51017    0.56831    0.70844    1.000
    O179     O        0.55510    0.66696    0.66856    1.000
    O180     O        0.54015    0.61374    0.65741    1.000
    O181     O        0.50554    0.65610    0.72378    1.000
    O182     O        0.47826    0.61278    0.69055    1.000
    O183     O        0.58416    0.62871    0.71842    1.000
    O184     O        0.57210    0.66704    0.74033    1.000
    C793     C        0.50131    0.56474    0.73733    1.000
    C794     C        0.55209    0.64511    0.64830    1.000
    C795     C        0.47848    0.63754    0.70669    1.000
    C796     C        0.48402    0.53069    0.75293    1.000
    C797     C        0.56152    0.65418    0.61512    1.000
    C798     C        0.44873    0.64361    0.70695    1.000
    C799     C        0.47304    0.50109    0.73424    1.000
    C800     C        0.47892    0.52729    0.78545    1.000
    C801     C        0.57308    0.68785    0.60439    1.000
    C802     C        0.55786    0.62852    0.59380    1.000
    C803     C        0.45161    0.67263    0.72276    1.000
    C804     C        0.41732    0.62036    0.69168    1.000
    H441     H        0.47643    0.50337    0.71247    1.000
    C805     C        0.45697    0.46810    0.74808    1.000
    C806     C        0.46285    0.49430    0.79929    1.000
    H442     H        0.48623    0.54707    0.79797    1.000
    H443     H        0.57463    0.70477    0.61847    1.000
    C807     C        0.58234    0.69690    0.57331    1.000
    C808     C        0.56686    0.63760    0.56263    1.000
    H444     H        0.54943    0.60557    0.60047    1.000
    H445     H        0.47213    0.68797    0.73327    1.000
    C809     C        0.42410    0.67821    0.72260    1.000
    C810     C        0.38991    0.62628    0.69286    1.000
    H446     H        0.41523    0.60107    0.68087    1.000
    H447     H        0.44963    0.44827    0.73557    1.000
    C811     C        0.45187    0.46471    0.78061    1.000
    H448     H        0.45943    0.49207    0.82107    1.000
    H449     H        0.59063    0.71977    0.56667    1.000
    C812     C        0.57923    0.67156    0.55199    1.000
    H450     H        0.56463    0.62057    0.54837    1.000
    H451     H        0.42663    0.69817    0.73247    1.000
    C813     C        0.39184    0.65508    0.70816    1.000
    H452     H        0.36903    0.61047    0.68307    1.000
    C814     C        0.43317    0.42884    0.79530    1.000
    C815     C        0.58953    0.68022    0.51747    1.000
    C816     C        0.36149    0.66053    0.70959    1.000
    C817     C        0.44163    0.42417    0.82589    1.000
    C818     C        0.40656    0.40081    0.77899    1.000
    C819     C        0.58337    0.70428    0.50234    1.000
    C820     C        0.60443    0.66363    0.50229    1.000
    C821     C        0.32766    0.63330    0.70911    1.000
    H453     H        0.45943    0.44287    0.83677    1.000
    C822     C        0.42345    0.39148    0.84017    1.000
    C823     C        0.38838    0.36812    0.79328    1.000
    H454     H        0.40093    0.40397    0.75857    1.000
    H455     H        0.57243    0.71467    0.51287    1.000
    C824     C        0.59383    0.71278    0.47075    1.000
    C825     C        0.61483    0.67149    0.47064    1.000
    H456     H        0.60763    0.64707    0.51297    1.000
    H457     H        0.32373    0.61057    0.70847    1.000
    C826     C        0.39683    0.36345    0.82387    1.000
    C827     C        0.43083    0.38674    0.87388    1.000
    C828     C        0.36095    0.33779    0.77520    1.000
    C829     C        0.60953    0.69619    0.45545    1.000
    C830     C        0.58705    0.73788    0.45311    1.000
    C831     C        0.63148    0.65407    0.45363    1.000
    H458     H        0.38473    0.34157    0.83347    1.000
    C832     C        0.42469    0.35540    0.88563    1.000
    C833     C        0.44353    0.41490    0.89421    1.000
    C834     C        0.33477    0.33948    0.75838    1.000
    C835     C        0.36202    0.30684    0.77584    1.000
    H459     H        0.61663    0.70187    0.43457    1.000
    C836     C        0.59569    0.74340    0.42122    1.000
    C837     C        0.57452    0.75734    0.46833    1.000
    C838     C        0.65824    0.67321    0.43200    1.000
    C839     C        0.62123    0.62010    0.45902    1.000
    H460     H        0.41513    0.33597    0.87237    1.000
    C840     C        0.43221    0.35162    0.91639    1.000
    C841     C        0.44883    0.41117    0.92467    1.000
    H461     H        0.44843    0.43667    0.88667    1.000
    H462     H        0.33403    0.36017    0.75797    1.000
    C842     C        0.30966    0.31022    0.74221    1.000
    C843     C        0.33690    0.27758    0.75966    1.000
    H463     H        0.37953    0.30567    0.78707    1.000
    H464     H        0.60403    0.73037    0.41107    1.000
    C844     C        0.59183    0.76837    0.40453    1.000
    C845     C        0.57063    0.78232    0.45164    1.000
    H465     H        0.56873    0.75367    0.48967    1.000
    H466     H        0.66573    0.69667    0.42837    1.000
    C846     C        0.67357    0.65692    0.41595    1.000
    C847     C        0.63619    0.60361    0.44255    1.000
    H467     H        0.60393    0.60757    0.47397    1.000
    H468     H        0.42823    0.33007    0.92377    1.000
    C848     C        0.44572    0.38027    0.93620    1.000
    H469     H        0.45483    0.42967    0.93857    1.000
    H470     H        0.29213    0.31137    0.73097    1.000
    C849     C        0.31072    0.27927    0.74285    1.000
    H471     H        0.33763    0.25687    0.76007    1.000
    H472     H        0.59763    0.77207    0.38317    1.000
    C850     C        0.57927    0.78784    0.41974    1.000
    H473     H        0.56223    0.79537    0.46187    1.000
    H474     H        0.69173    0.66977    0.40187    1.000
    C851     C        0.66210    0.62172    0.42072    1.000
    H475     H        0.62853    0.58017    0.44637    1.000
    C852     C        0.45335    0.37747    0.97007    1.000
    C853     C        0.28543    0.24933    0.72525    1.000
    C854     C        0.57563    0.81737    0.40237    1.000
    C855     C        0.67726    0.60332    0.40353    1.000
    O185     O        0.46989    0.40495    0.98616    1.000
    O186     O        0.44554    0.34829    0.98204    1.000
    O187     O        0.29289    0.22627    0.71580    1.000
    O188     O        0.25553    0.24232    0.72023    1.000
    O189     O        0.56135    0.83058    0.41247    1.000
    O190     O        0.58553    0.81927    0.37377    1.000
    In24     In       0.47336    0.37841    0.02884    1.000
    O191     O        0.49047    0.33928    0.03726    1.000
    O192     O        0.52130    0.38241    0.00534    1.000
    C856     C        0.51746    0.35679    0.02117    1.000
    C857     C        0.54718    0.34959    0.02120    1.000
    C858     C        0.57811    0.37255    0.00578    1.000
    C859     C        0.54517    0.32212    0.03894    1.000
    H476     H        0.57943    0.39097    0.99387    1.000
    C860     C        0.60704    0.36804    0.00810    1.000
    C861     C        0.57409    0.31762    0.04125    1.000
    H477     H        0.52443    0.30677    0.04927    1.000
    H478     H        0.62773    0.38337    0.99777    1.000
    C862     C        0.60503    0.34058    0.02584    1.000
    H479     H        0.57273    0.29927    0.05317    1.000
    C863     C        0.63693    0.33607    0.02887    1.000
    C864     C        0.67013    0.36587    0.02873    1.000
    H480     H        0.67233    0.38787    0.02857    1.000
    In25     In       0.04043    0.23905    0.04095    1.000
    O193     O        0.07384    0.24927    0.08587    1.000
    O194     O        0.09836    0.27520    0.04177    1.000
    O195     O        0.99971    0.22148    0.00189    1.000
    O196     O        0.05293    0.25975    0.99074    1.000
    O197     O        0.01057    0.18278    0.05711    1.000
    O198     O        0.05389    0.19882    0.02388    1.000
    O199     O        0.03796    0.28879    0.05175    1.000
    O200     O        0.99963    0.23840    0.07366    1.000
    C865     C        0.10193    0.26991    0.07066    1.000
    C866     C        0.02156    0.24032    0.98163    1.000
    C867     C        0.02913    0.17428    0.04002    1.000
    C868     C        0.13598    0.28667    0.08626    1.000
    C869     C        0.01249    0.24068    0.94845    1.000
    C870     C        0.02306    0.13846    0.04028    1.000
    C871     C        0.16558    0.30529    0.06757    1.000
    C872     C        0.13938    0.28497    0.11878    1.000
    C873     C        0.97882    0.21857    0.93772    1.000
    C874     C        0.03815    0.26268    0.92713    1.000
    C875     C        0.99404    0.11232    0.05609    1.000
    C876     C        0.04631    0.13030    0.02501    1.000
    H481     H        0.16330    0.30640    0.04580    1.000
    C877     C        0.19857    0.32221    0.08141    1.000
    C878     C        0.17237    0.30189    0.13262    1.000
    H482     H        0.11960    0.27250    0.13130    1.000
    H483     H        0.96190    0.20320    0.95180    1.000
    C879     C        0.96977    0.21878    0.90664    1.000
    C880     C        0.02907    0.26260    0.89596    1.000
    H484     H        0.06110    0.27720    0.93380    1.000
    H485     H        0.97870    0.11750    0.06660    1.000
    C881     C        0.98846    0.07923    0.05593    1.000
    C882     C        0.04039    0.09697    0.02619    1.000
    H486     H        0.06560    0.14750    0.01420    1.000
    H487     H        0.21840    0.33470    0.06890    1.000
    C883     C        0.20196    0.32050    0.11394    1.000
    H488     H        0.17460    0.30070    0.15440    1.000
    H489     H        0.94690    0.20420    0.90000    1.000
    C884     C        0.99511    0.24101    0.88532    1.000
    H490     H        0.04610    0.27740    0.88170    1.000
    H491     H        0.96850    0.06180    0.06580    1.000
    C885     C        0.01159    0.07010    0.04149    1.000
    H492     H        0.05620    0.09190    0.01640    1.000
    C886     C        0.23783    0.33767    0.12863    1.000
    C887     C        0.98645    0.24265    0.85080    1.000
    C888     C        0.00614    0.03430    0.04292    1.000
    C889     C        0.24250    0.35080    0.15922    1.000
    C890     C        0.26586    0.33909    0.11232    1.000
    C891     C        0.96239    0.21243    0.83567    1.000
    C892     C        0.00304    0.27414    0.83562    1.000
    C893     C        0.03337    0.02770    0.04244    1.000
    H493     H        0.22380    0.34990    0.17010    1.000
    C894     C        0.27519    0.36531    0.17350    1.000
    C895     C        0.29855    0.35360    0.12661    1.000
    H494     H        0.26270    0.33030    0.09190    1.000
    H495     H        0.95200    0.19110    0.84620    1.000
    C896     C        0.95389    0.21439    0.80408    1.000
    C897     C        0.99518    0.27668    0.80397    1.000
    H496     H        0.01960    0.29390    0.84630    1.000
    H497     H        0.05610    0.04650    0.04180    1.000
    C898     C        0.30322    0.36672    0.15720    1.000
    C899     C        0.27993    0.37743    0.20721    1.000
    C900     C        0.32888    0.35650    0.10853    1.000
    C901     C        0.97048    0.24668    0.78878    1.000
    C902     C        0.92879    0.18251    0.78644    1.000
    C903     C        0.01260    0.31075    0.78696    1.000
    H498     H        0.32510    0.37650    0.16680    1.000
    C904     C        0.31127    0.40263    0.21896    1.000
    C905     C        0.25177    0.36197    0.22754    1.000
    C906     C        0.32719    0.32863    0.09171    1.000
    C907     C        0.35983    0.38852    0.10917    1.000
    H499     H        0.96480    0.24810    0.76790    1.000
    C908     C        0.92327    0.18563    0.75455    1.000
    C909     C        0.90933    0.15052    0.80166    1.000
    C910     C        0.99346    0.31837    0.76533    1.000
    C911     C        0.04657    0.33447    0.79235    1.000
    H500     H        0.33070    0.41250    0.20570    1.000
    C912     C        0.31505    0.41393    0.24972    1.000
    C913     C        0.25550    0.37100    0.25800    1.000
    H501     H        0.23000    0.34510    0.22000    1.000
    H502     H        0.30650    0.30720    0.09130    1.000
    C914     C        0.35645    0.33278    0.07554    1.000
    C915     C        0.38909    0.39266    0.09299    1.000
    H503     H        0.36100    0.40720    0.12040    1.000
    H504     H        0.93630    0.20700    0.74440    1.000
    C916     C        0.89830    0.15680    0.73786    1.000
    C917     C        0.88435    0.12165    0.78497    1.000
    H505     H        0.91300    0.14840    0.82300    1.000
    H506     H        0.97000    0.30240    0.76170    1.000
    C918     C        0.00975    0.34999    0.74928    1.000
    C919     C        0.06306    0.36592    0.77588    1.000
    H507     H        0.05910    0.32970    0.80730    1.000
    H508     H        0.33660    0.43150    0.25710    1.000
    C920     C        0.28640    0.39879    0.26953    1.000
    H509     H        0.23700    0.35850    0.27190    1.000
    H510     H        0.35530    0.31410    0.06430    1.000
    C921     C        0.38740    0.36479    0.07618    1.000
    H511     H        0.40980    0.41410    0.09340    1.000
    H512     H        0.89460    0.15890    0.71650    1.000
    C922     C        0.87883    0.12477    0.75307    1.000
    H513     H        0.87130    0.10020    0.79520    1.000
    H514     H        0.99690    0.35530    0.73520    1.000
    C923     C        0.04495    0.37372    0.75405    1.000
    H515     H        0.08650    0.38170    0.77970    1.000
    C924     C        0.28920    0.40922    0.30340    1.000
    C925     C        0.41734    0.36944    0.05858    1.000
    C926     C        0.84930    0.09160    0.73570    1.000
    C927     C        0.06335    0.40728    0.73686    1.000
    O201     O        0.26172    0.39828    0.31949    1.000
    O202     O        0.31838    0.43059    0.31537    1.000
    O203     O        0.44040    0.39996    0.04913    1.000
    O204     O        0.42435    0.34655    0.05356    1.000
    O205     O        0.83609    0.06411    0.74580    1.000
    O206     O        0.84740    0.09960    0.70710    1.000
    In26     In       0.28826    0.42828    0.36218    1.000
    O207     O        0.32739    0.48453    0.37059    1.000
    O208     O        0.28426    0.47223    0.33867    1.000
    C928     C        0.30988    0.49401    0.35450    1.000
    C929     C        0.31708    0.53093    0.35453    1.000
    C930     C        0.29412    0.53890    0.33911    1.000
    C931     C        0.34455    0.55639    0.37227    1.000
    H516     H        0.27570    0.52180    0.32720    1.000
    C932     C        0.29863    0.57234    0.34143    1.000
    C933     C        0.34905    0.58981    0.37458    1.000
    H517     H        0.35990    0.55100    0.38260    1.000
    H518     H        0.28330    0.57770    0.33110    1.000
    C934     C        0.32609    0.59779    0.35917    1.000
    H519     H        0.36740    0.60680    0.38650    1.000
    C935     C        0.33060    0.63420    0.36220    1.000
    C936     C        0.30080    0.63760    0.36206    1.000
    H520     H        0.27880    0.61780    0.36190    1.000
    In27     In       0.70710    0.57238    0.37428    1.000
    O209     O        0.74051    0.58260    0.41920    1.000
    O210     O        0.76503    0.60853    0.37510    1.000
    O211     O        0.66638    0.55481    0.33522    1.000
    O212     O        0.71960    0.59308    0.32407    1.000
    O213     O        0.67724    0.51611    0.39044    1.000
    O214     O        0.72056    0.53215    0.35721    1.000
    O215     O        0.70463    0.62212    0.38508    1.000
    O216     O        0.66630    0.57173    0.40699    1.000
    C937     C        0.76860    0.60324    0.40399    1.000
    C938     C        0.68823    0.57365    0.31496    1.000
    C939     C        0.69580    0.50761    0.37335    1.000
    C940     C        0.80265    0.62000    0.41959    1.000
    C941     C        0.67916    0.57401    0.28178    1.000
    C942     C        0.68973    0.47179    0.37361    1.000
    C943     C        0.83225    0.63862    0.40090    1.000
    C944     C        0.80605    0.61830    0.45211    1.000
    C945     C        0.64549    0.55190    0.27105    1.000
    C946     C        0.70482    0.59601    0.26046    1.000
    C947     C        0.66071    0.44565    0.38942    1.000
    C948     C        0.71298    0.46363    0.35834    1.000
    H521     H        0.82997    0.63973    0.37913    1.000
    C949     C        0.86524    0.65554    0.41474    1.000
    C950     C        0.83904    0.63522    0.46595    1.000
    H522     H        0.78627    0.60583    0.46463    1.000
    H523     H        0.62857    0.53653    0.28513    1.000
    C951     C        0.63644    0.55211    0.23997    1.000
    C952     C        0.69574    0.59593    0.22929    1.000
    H524     H        0.72777    0.61053    0.26713    1.000
    H525     H        0.64537    0.45083    0.39993    1.000
    C953     C        0.65513    0.41256    0.38926    1.000
    C954     C        0.70706    0.43030    0.35952    1.000
    H526     H        0.73227    0.48083    0.34753    1.000
    H527     H        0.88507    0.66803    0.40223    1.000
    C955     C        0.86863    0.65383    0.44727    1.000
    H528     H        0.84127    0.63403    0.48773    1.000
    H529     H        0.61357    0.53753    0.23333    1.000
    C956     C        0.66178    0.57434    0.21865    1.000
    H530     H        0.71277    0.61073    0.21503    1.000
    H531     H        0.63517    0.39513    0.39913    1.000
    C957     C        0.67826    0.40343    0.37482    1.000
    H532     H        0.72287    0.42523    0.34973    1.000
    C958     C        0.90450    0.67100    0.46196    1.000
    C959     C        0.65312    0.57598    0.18413    1.000
    C960     C        0.67281    0.36763    0.37625    1.000
    C961     C        0.90917    0.68413    0.49255    1.000
    C962     C        0.93253    0.67242    0.44565    1.000
    C963     C        0.62906    0.54576    0.16900    1.000
    C964     C        0.66971    0.60747    0.16895    1.000
    C965     C        0.70004    0.36103    0.37577    1.000
    H533     H        0.89047    0.68323    0.50343    1.000
    C966     C        0.94186    0.69864    0.50683    1.000
    C967     C        0.96522    0.68693    0.45994    1.000
    H534     H        0.92937    0.66363    0.42523    1.000
    H535     H        0.61867    0.52443    0.17953    1.000
    C968     C        0.62056    0.54772    0.13741    1.000
    C969     C        0.66185    0.61001    0.13730    1.000
    H536     H        0.68627    0.62723    0.17963    1.000
    H537     H        0.72277    0.37983    0.37513    1.000
    C970     C        0.96989    0.70005    0.49053    1.000
    C971     C        0.94660    0.71076    0.54054    1.000
    C972     C        0.99555    0.68983    0.44186    1.000
    C973     C        0.63715    0.58001    0.12211    1.000
    C974     C        0.59546    0.51584    0.11977    1.000
    C975     C        0.67927    0.64408    0.12029    1.000
    H538     H        0.99177    0.70983    0.50013    1.000
    C976     C        0.97794    0.73596    0.55229    1.000
    C977     C        0.91844    0.69530    0.56087    1.000
    C978     C        0.99386    0.66196    0.42504    1.000
    C979     C        0.02650    0.72185    0.44250    1.000
    H539     H        0.63147    0.58143    0.10123    1.000
    C980     C        0.58994    0.51896    0.08788    1.000
    C981     C        0.57600    0.48385    0.13499    1.000
    C982     C        0.66013    0.65170    0.09866    1.000
    C983     C        0.71324    0.66780    0.12568    1.000
    H540     H        0.99737    0.74583    0.53903    1.000
    C984     C        0.98172    0.74726    0.58305    1.000
    C985     C        0.92217    0.70433    0.59133    1.000
    H541     H        0.89667    0.67843    0.55333    1.000
    H542     H        0.97317    0.64053    0.42463    1.000
    C986     C        0.02312    0.66611    0.40887    1.000
    C987     C        0.05576    0.72599    0.42632    1.000
    H543     H        0.02767    0.74053    0.45373    1.000
    H544     H        0.60297    0.54033    0.07773    1.000
    C988     C        0.56497    0.49013    0.07119    1.000
    C989     C        0.55102    0.45498    0.11830    1.000
    H545     H        0.57967    0.48173    0.15633    1.000
    H546     H        0.63667    0.63573    0.09503    1.000
    C990     C        0.67642    0.68332    0.08261    1.000
    C991     C        0.72973    0.69925    0.10921    1.000
    H547     H        0.72577    0.66303    0.14063    1.000
    H548     H        0.00327    0.76483    0.59043    1.000
    C992     C        0.95307    0.73212    0.60286    1.000
    H549     H        0.90367    0.69183    0.60523    1.000
    H550     H        0.02197    0.64743    0.39763    1.000
    C993     C        0.05407    0.69812    0.40951    1.000
    H551     H        0.07647    0.74743    0.42673    1.000
    H552     H        0.56127    0.49223    0.04983    1.000
    C994     C        0.54550    0.45810    0.08640    1.000
    H553     H        0.53797    0.43353    0.12853    1.000
    H554     H        0.66357    0.68863    0.06853    1.000
    C995     C        0.71162    0.70705    0.08738    1.000
    H555     H        0.75317    0.71503    0.11303    1.000
    C996     C        0.95587    0.74255    0.63673    1.000
    C997     C        0.08401    0.70277    0.39191    1.000
    C998     C        0.51597    0.42493    0.06903    1.000
    C999     C        0.73002    0.74061    0.07019    1.000
    O217     O        0.92839    0.73161    0.65282    1.000
    O218     O        0.98505    0.76392    0.64870    1.000
    O219     O        0.10707    0.73329    0.38246    1.000
    O220     O        0.09102    0.67988    0.38689    1.000
    O221     O        0.50276    0.39744    0.07913    1.000
    O222     O        0.51407    0.43293    0.04043    1.000
    In28     In       0.95492    0.76161    0.69551    1.000
    O223     O        0.99406    0.81786    0.70392    1.000
    O224     O        0.95093    0.80556    0.67200    1.000
    C1000    C        0.97655    0.82734    0.68783    1.000
    C1001    C        0.98375    0.86426    0.68786    1.000
    C1002    C        0.96079    0.87223    0.67244    1.000
    C1003    C        0.01122    0.88972    0.70560    1.000
    H556     H        0.94237    0.85513    0.66053    1.000
    C1004    C        0.96530    0.90567    0.67476    1.000
    C1005    C        0.01572    0.92314    0.70791    1.000
    H557     H        0.02657    0.88433    0.71593    1.000
    H558     H        0.94997    0.91103    0.66443    1.000
    C1006    C        0.99276    0.93112    0.69250    1.000
    H559     H        0.03407    0.94013    0.71983    1.000
    C1007    C        0.99727    0.96753    0.69553    1.000
    C1008    C        0.96747    0.97093    0.69539    1.000
    H560     H        0.94547    0.95113    0.69523    1.000
    In29     In       0.37376    0.90572    0.70761    1.000
    O225     O        0.40717    0.91594    0.75254    1.000
    O226     O        0.43169    0.94187    0.70844    1.000
    O227     O        0.33304    0.88815    0.66856    1.000
    O228     O        0.38626    0.92642    0.65741    1.000
    O229     O        0.34390    0.84945    0.72378    1.000
    O230     O        0.38722    0.86549    0.69055    1.000
    O231     O        0.37129    0.95546    0.71842    1.000
    O232     O        0.33296    0.90507    0.74033    1.000
    C1009    C        0.43526    0.93658    0.73733    1.000
    C1010    C        0.35489    0.90699    0.64830    1.000
    C1011    C        0.36246    0.84095    0.70669    1.000
    C1012    C        0.46931    0.95334    0.75293    1.000
    C1013    C        0.34582    0.90735    0.61512    1.000
    C1014    C        0.35639    0.80513    0.70695    1.000
    C1015    C        0.49891    0.97196    0.73424    1.000
    C1016    C        0.47271    0.95164    0.78545    1.000
    C1017    C        0.31215    0.88524    0.60439    1.000
    C1018    C        0.37148    0.92935    0.59380    1.000
    C1019    C        0.32737    0.77899    0.72276    1.000
    C1020    C        0.37964    0.79697    0.69168    1.000
    H561     H        0.49663    0.97307    0.71247    1.000
    C1021    C        0.53190    0.98888    0.74808    1.000
    C1022    C        0.50570    0.96856    0.79929    1.000
    H562     H        0.45293    0.93917    0.79797    1.000
    H563     H        0.29523    0.86987    0.61847    1.000
    C1023    C        0.30310    0.88545    0.57331    1.000
    C1024    C        0.36240    0.92927    0.56263    1.000
    H564     H        0.39443    0.94387    0.60047    1.000
    H565     H        0.31203    0.78417    0.73327    1.000
    C1025    C        0.32179    0.74590    0.72260    1.000
    C1026    C        0.37372    0.76364    0.69286    1.000
    H566     H        0.39893    0.81417    0.68087    1.000
    H567     H        0.55173    0.00137    0.73557    1.000
    C1027    C        0.53529    0.98717    0.78061    1.000
    H568     H        0.50793    0.96737    0.82107    1.000
    H569     H        0.28023    0.87087    0.56667    1.000
    C1028    C        0.32844    0.90768    0.55199    1.000
    H570     H        0.37943    0.94407    0.54837    1.000
    H571     H        0.30183    0.72847    0.73247    1.000
    C1029    C        0.34492    0.73677    0.70816    1.000
    H572     H        0.38953    0.75857    0.68307    1.000
    C1030    C        0.57116    0.00434    0.79530    1.000
    C1031    C        0.31978    0.90932    0.51747    1.000
    C1032    C        0.33947    0.70097    0.70959    1.000
    C1033    C        0.57583    0.01747    0.82589    1.000
    C1034    C        0.59919    0.00576    0.77899    1.000
    C1035    C        0.29572    0.87910    0.50234    1.000
    C1036    C        0.33637    0.94081    0.50229    1.000
    C1037    C        0.36670    0.69437    0.70911    1.000
    H573     H        0.55713    0.01657    0.83677    1.000
    C1038    C        0.60852    0.03198    0.84017    1.000
    C1039    C        0.63188    0.02027    0.79328    1.000
    H574     H        0.59603    0.99697    0.75857    1.000
    H575     H        0.28533    0.85777    0.51287    1.000
    C1040    C        0.28722    0.88106    0.47075    1.000
    C1041    C        0.32851    0.94335    0.47064    1.000
    H576     H        0.35293    0.96057    0.51297    1.000
    H577     H        0.38943    0.71317    0.70847    1.000
    C1042    C        0.63655    0.03339    0.82387    1.000
    C1043    C        0.61326    0.04410    0.87388    1.000
    C1044    C        0.66221    0.02317    0.77520    1.000
    C1045    C        0.30381    0.91335    0.45545    1.000
    C1046    C        0.26212    0.84918    0.45311    1.000
    C1047    C        0.34593    0.97742    0.45363    1.000
    H578     H        0.65843    0.04317    0.83347    1.000
    C1048    C        0.64460    0.06930    0.88563    1.000
    C1049    C        0.58510    0.02864    0.89421    1.000
    C1050    C        0.66052    0.99530    0.75838    1.000
    C1051    C        0.69316    0.05519    0.77584    1.000
    H579     H        0.29813    0.91477    0.43457    1.000
    C1052    C        0.25660    0.85230    0.42122    1.000
    C1053    C        0.24266    0.81719    0.46833    1.000
    C1054    C        0.32679    0.98504    0.43200    1.000
    C1055    C        0.37990    0.00114    0.45902    1.000
    H580     H        0.66403    0.07917    0.87237    1.000
    C1056    C        0.64838    0.08060    0.91639    1.000
    C1057    C        0.58883    0.03767    0.92467    1.000
    H581     H        0.56333    0.01177    0.88667    1.000
    H582     H        0.63983    0.97387    0.75797    1.000
    C1058    C        0.68978    0.99945    0.74221    1.000
    C1059    C        0.72242    0.05933    0.75966    1.000
    H583     H        0.69433    0.07387    0.78707    1.000
    H584     H        0.26963    0.87367    0.41107    1.000
    C1060    C        0.23163    0.82347    0.40453    1.000
    C1061    C        0.21768    0.78832    0.45164    1.000
    H585     H        0.24633    0.81507    0.48967    1.000
    H586     H        0.30333    0.96907    0.42837    1.000
    C1062    C        0.34308    0.01666    0.41595    1.000
    C1063    C        0.39639    0.03259    0.44255    1.000
    H587     H        0.39243    0.99637    0.47397    1.000
    H588     H        0.66993    0.09817    0.92377    1.000
    C1064    C        0.61973    0.06546    0.93620    1.000
    H589     H        0.57033    0.02517    0.93857    1.000
    H590     H        0.68863    0.98077    0.73097    1.000
    C1065    C        0.72073    0.03146    0.74285    1.000
    H591     H        0.74313    0.08077    0.76007    1.000
    H592     H        0.22793    0.82557    0.38317    1.000
    C1066    C        0.21216    0.79144    0.41974    1.000
    H593     H        0.20463    0.76687    0.46187    1.000
    H594     H        0.33023    0.02197    0.40187    1.000
    C1067    C        0.37828    0.04039    0.42072    1.000
    H595     H        0.41983    0.04837    0.44637    1.000
    C1068    C        0.62253    0.07589    0.97007    1.000
    C1069    C        0.75067    0.03611    0.72525    1.000
    C1070    C        0.18263    0.75827    0.40237    1.000
    C1071    C        0.39668    0.07395    0.40353    1.000
    O233     O        0.59505    0.06495    0.98616    1.000
    O234     O        0.65171    0.09726    0.98204    1.000
    O235     O        0.77373    0.06663    0.71580    1.000
    O236     O        0.75768    0.01322    0.72023    1.000
    O237     O        0.16942    0.73078    0.41247    1.000
    O238     O        0.18073    0.76627    0.37377    1.000
    In30     In       0.62159    0.09495    0.02884    1.000
    O239     O        0.66072    0.15120    0.03726    1.000
    O240     O        0.61759    0.13890    0.00534    1.000
    C1072    C        0.64321    0.16068    0.02117    1.000
    C1073    C        0.65041    0.19760    0.02120    1.000
    C1074    C        0.62745    0.20557    0.00578    1.000
    C1075    C        0.67788    0.22306    0.03894    1.000
    H596     H        0.60903    0.18847    0.99387    1.000
    C1076    C        0.63196    0.23901    0.00810    1.000
    C1077    C        0.68238    0.25648    0.04125    1.000
    H597     H        0.69323    0.21767    0.04927    1.000
    H598     H        0.61663    0.24437    0.99777    1.000
    C1078    C        0.65942    0.26446    0.02584    1.000
    H599     H        0.70073    0.27347    0.05317    1.000
    C1079    C        0.66393    0.30087    0.02887    1.000
    C1080    C        0.63413    0.30427    0.02873    1.000
    H600     H        0.61213    0.28447    0.02857    1.000
    In31     In       0.76095    0.80138    0.04095    1.000
    O241     O        0.75073    0.82457    0.08587    1.000
    O242     O        0.72480    0.82316    0.04177    1.000
    O243     O        0.77852    0.77823    0.00189    1.000
    O244     O        0.74025    0.79318    0.99074    1.000
    O245     O        0.81722    0.82779    0.05711    1.000
    O246     O        0.80118    0.85507    0.02388    1.000
    O247     O        0.71121    0.74917    0.05175    1.000
    O248     O        0.76160    0.76123    0.07366    1.000
    C1081    C        0.73009    0.83202    0.07066    1.000
    C1082    C        0.75968    0.78124    0.98163    1.000
    C1083    C        0.82572    0.85485    0.04002    1.000
    C1084    C        0.71333    0.84931    0.08626    1.000
    C1085    C        0.75932    0.77181    0.94845    1.000
    C1086    C        0.86154    0.88460    0.04028    1.000
    C1087    C        0.69471    0.86029    0.06757    1.000
    C1088    C        0.71503    0.85441    0.11878    1.000
    C1089    C        0.78143    0.76025    0.93772    1.000
    C1090    C        0.73732    0.77547    0.92713    1.000
    C1091    C        0.88768    0.88172    0.05609    1.000
    C1092    C        0.86970    0.91601    0.02501    1.000
    H601     H        0.69360    0.85690    0.04580    1.000
    C1093    C        0.67779    0.87636    0.08141    1.000
    C1094    C        0.69811    0.87048    0.13262    1.000
    H602     H        0.72750    0.84710    0.13130    1.000
    H603     H        0.79680    0.75870    0.95180    1.000
    C1095    C        0.78122    0.75099    0.90664    1.000
    C1096    C        0.73740    0.76647    0.89596    1.000
    H604     H        0.72280    0.78390    0.93380    1.000
    H605     H        0.88250    0.86120    0.06660    1.000
    C1097    C        0.92077    0.90923    0.05593    1.000
    C1098    C        0.90303    0.94342    0.02619    1.000
    H606     H        0.85250    0.91810    0.01420    1.000
    H607     H        0.66530    0.88370    0.06890    1.000
    C1099    C        0.67950    0.88146    0.11394    1.000
    H608     H        0.69930    0.87390    0.15440    1.000
    H609     H        0.79580    0.74270    0.90000    1.000
    C1100    C        0.75899    0.75410    0.88532    1.000
    H610     H        0.72260    0.76870    0.88170    1.000
    H611     H        0.93820    0.90670    0.06580    1.000
    C1101    C        0.92990    0.94149    0.04149    1.000
    H612     H        0.90810    0.96430    0.01640    1.000
    C1102    C        0.66233    0.90016    0.12863    1.000
    C1103    C        0.75735    0.74380    0.85080    1.000
    C1104    C        0.96570    0.97184    0.04292    1.000
    C1105    C        0.64920    0.89170    0.15922    1.000
    C1106    C        0.66091    0.92677    0.11232    1.000
    C1107    C        0.78757    0.74996    0.83567    1.000
    C1108    C        0.72586    0.72890    0.83562    1.000
    C1109    C        0.97230    0.00567    0.04244    1.000
    H613     H        0.65010    0.87390    0.17010    1.000
    C1110    C        0.63469    0.90988    0.17350    1.000
    C1111    C        0.64640    0.94495    0.12661    1.000
    H614     H        0.66970    0.93240    0.09190    1.000
    H615     H        0.80890    0.76090    0.84620    1.000
    C1112    C        0.78561    0.73950    0.80408    1.000
    C1113    C        0.72332    0.71850    0.80397    1.000
    H616     H        0.70610    0.72570    0.84630    1.000
    H617     H        0.95350    0.00960    0.04180    1.000
    C1114    C        0.63328    0.93650    0.15720    1.000
    C1115    C        0.62257    0.90250    0.20721    1.000
    C1116    C        0.64350    0.97238    0.10853    1.000
    C1117    C        0.75332    0.72380    0.78878    1.000
    C1118    C        0.81749    0.74628    0.78644    1.000
    C1119    C        0.68925    0.70185    0.78696    1.000
    H618     H        0.62350    0.94860    0.16680    1.000
    C1120    C        0.59737    0.90864    0.21896    1.000
    C1121    C        0.63803    0.88980    0.22754    1.000
    C1122    C        0.67137    0.99856    0.09171    1.000
    C1123    C        0.61148    0.97131    0.10917    1.000
    H619     H        0.75190    0.71670    0.76790    1.000
    C1124    C        0.81437    0.73764    0.75455    1.000
    C1125    C        0.84948    0.75881    0.80166    1.000
    C1126    C        0.68163    0.67509    0.76533    1.000
    C1127    C        0.66553    0.71210    0.79235    1.000
    H620     H        0.58750    0.91820    0.20570    1.000
    C1128    C        0.58607    0.90112    0.24972    1.000
    C1129    C        0.62900    0.88450    0.25800    1.000
    H621     H        0.65490    0.88490    0.22000    1.000
    H622     H        0.69280    0.99930    0.09130    1.000
    C1130    C        0.66722    0.02367    0.07554    1.000
    C1131    C        0.60734    0.99643    0.09299    1.000
    H623     H        0.59280    0.95380    0.12040    1.000
    H624     H        0.79300    0.72930    0.74440    1.000
    C1132    C        0.84320    0.74150    0.73786    1.000
    C1133    C        0.87835    0.76270    0.78497    1.000
    H625     H        0.85160    0.76460    0.82300    1.000
    H626     H        0.69760    0.66760    0.76170    1.000
    C1134    C        0.65001    0.65976    0.74928    1.000
    C1135    C        0.63408    0.69714    0.77588    1.000
    H627     H        0.67030    0.72940    0.80730    1.000
    H628     H        0.56850    0.90510    0.25710    1.000
    C1136    C        0.60121    0.88761    0.26953    1.000
    H629     H        0.64150    0.87850    0.27190    1.000
    H630     H        0.68590    0.04120    0.06430    1.000
    C1137    C        0.63521    0.02261    0.07618    1.000
    H631     H        0.58590    0.99570    0.09340    1.000
    H632     H        0.84110    0.73570    0.71650    1.000
    C1138    C        0.87523    0.75406    0.75307    1.000
    H633     H        0.89980    0.77110    0.79520    1.000
    H634     H        0.64470    0.64160    0.73520    1.000
    C1139    C        0.62628    0.67123    0.75405    1.000
    H635     H        0.61830    0.70480    0.77970    1.000
    C1140    C        0.59078    0.87998    0.30340    1.000
    C1141    C        0.63056    0.04790    0.05858    1.000
    C1142    C        0.90840    0.75770    0.73570    1.000
    C1143    C        0.59272    0.65607    0.73686    1.000
    O249     O        0.60172    0.86344    0.31949    1.000
    O250     O        0.56941    0.88779    0.31537    1.000
    O251     O        0.60004    0.04044    0.04913    1.000
    O252     O        0.65345    0.07780    0.05356    1.000
    O253     O        0.93589    0.77198    0.74580    1.000
    O254     O        0.90040    0.74780    0.70710    1.000
    In32     In       0.57172    0.85998    0.36218    1.000
    O255     O        0.51547    0.84286    0.37059    1.000
    O256     O        0.52777    0.81203    0.33867    1.000
    C1144    C        0.50599    0.81587    0.35450    1.000
    C1145    C        0.46907    0.78615    0.35453    1.000
    C1146    C        0.46110    0.75522    0.33911    1.000
    C1147    C        0.44361    0.78816    0.37227    1.000
    H636     H        0.47820    0.75390    0.32720    1.000
    C1148    C        0.42766    0.72629    0.34143    1.000
    C1149    C        0.41019    0.75924    0.37458    1.000
    H637     H        0.44900    0.80890    0.38260    1.000
    H638     H        0.42230    0.70560    0.33110    1.000
    C1150    C        0.40221    0.72830    0.35917    1.000
    H639     H        0.39320    0.76060    0.38650    1.000
    C1151    C        0.36580    0.69640    0.36220    1.000
    C1152    C        0.36240    0.66320    0.36206    1.000
    H640     H        0.38220    0.66100    0.36190    1.000
    In33     In       0.42762    0.13471    0.37428    1.000
    O257     O        0.41740    0.15790    0.41920    1.000
    O258     O        0.39147    0.15649    0.37510    1.000
    O259     O        0.44519    0.11156    0.33522    1.000
    O260     O        0.40692    0.12651    0.32407    1.000
    O261     O        0.48389    0.16112    0.39044    1.000
    O262     O        0.46785    0.18840    0.35721    1.000
    O263     O        0.37788    0.08250    0.38508    1.000
    O264     O        0.42827    0.09456    0.40699    1.000
    C1153    C        0.39676    0.16535    0.40399    1.000
    C1154    C        0.42635    0.11457    0.31496    1.000
    C1155    C        0.49239    0.18818    0.37335    1.000
    C1156    C        0.38000    0.18264    0.41959    1.000
    C1157    C        0.42599    0.10514    0.28178    1.000
    C1158    C        0.52821    0.21793    0.37361    1.000
    C1159    C        0.36138    0.19362    0.40090    1.000
    C1160    C        0.38170    0.18774    0.45211    1.000
    C1161    C        0.44810    0.09358    0.27105    1.000
    C1162    C        0.40399    0.10880    0.26046    1.000
    C1163    C        0.55435    0.21505    0.38942    1.000
    C1164    C        0.53637    0.24934    0.35834    1.000
    H641     H        0.36027    0.19023    0.37913    1.000
    C1165    C        0.34446    0.20969    0.41474    1.000
    C1166    C        0.36478    0.20381    0.46595    1.000
    H642     H        0.39417    0.18043    0.46463    1.000
    H643     H        0.46347    0.09203    0.28513    1.000
    C1167    C        0.44789    0.08432    0.23997    1.000
    C1168    C        0.40407    0.09980    0.22929    1.000
    H644     H        0.38947    0.11723    0.26713    1.000
    H645     H        0.54917    0.19453    0.39993    1.000
    C1169    C        0.58744    0.24256    0.38926    1.000
    C1170    C        0.56970    0.27675    0.35952    1.000
    H646     H        0.51917    0.25143    0.34753    1.000
    H647     H        0.33197    0.21703    0.40223    1.000
    C1171    C        0.34617    0.21479    0.44727    1.000
    H648     H        0.36597    0.20723    0.48773    1.000
    H649     H        0.46247    0.07603    0.23333    1.000
    C1172    C        0.42566    0.08743    0.21865    1.000
    H650     H        0.38927    0.10203    0.21503    1.000
    H651     H        0.60487    0.24003    0.39913    1.000
    C1173    C        0.59657    0.27482    0.37482    1.000
    H652     H        0.57477    0.29763    0.34973    1.000
    C1174    C        0.32900    0.23349    0.46196    1.000
    C1175    C        0.42402    0.07713    0.18413    1.000
    C1176    C        0.63237    0.30517    0.37625    1.000
    C1177    C        0.31587    0.22503    0.49255    1.000
    C1178    C        0.32758    0.26010    0.44565    1.000
    C1179    C        0.45424    0.08329    0.16900    1.000
    C1180    C        0.39253    0.06223    0.16895    1.000
    C1181    C        0.63897    0.33900    0.37577    1.000
    H653     H        0.31677    0.20723    0.50343    1.000
    C1182    C        0.30136    0.24321    0.50683    1.000
    C1183    C        0.31307    0.27828    0.45994    1.000
    H654     H        0.33637    0.26573    0.42523    1.000
    H655     H        0.47557    0.09423    0.17953    1.000
    C1184    C        0.45228    0.07283    0.13741    1.000
    C1185    C        0.38999    0.05183    0.13730    1.000
    H656     H        0.37277    0.05903    0.17963    1.000
    H657     H        0.62017    0.34293    0.37513    1.000
    C1186    C        0.29995    0.26983    0.49053    1.000
    C1187    C        0.28924    0.23583    0.54054    1.000
    C1188    C        0.31017    0.30571    0.44186    1.000
    C1189    C        0.41999    0.05713    0.12211    1.000
    C1190    C        0.48416    0.07961    0.11977    1.000
    C1191    C        0.35592    0.03518    0.12029    1.000
    H658     H        0.29017    0.28193    0.50013    1.000
    C1192    C        0.26404    0.24197    0.55229    1.000
    C1193    C        0.30470    0.22313    0.56087    1.000
    C1194    C        0.33804    0.33189    0.42504    1.000
    C1195    C        0.27815    0.30464    0.44250    1.000
    H659     H        0.41857    0.05003    0.10123    1.000
    C1196    C        0.48104    0.07097    0.08788    1.000
    C1197    C        0.51615    0.09214    0.13499    1.000
    C1198    C        0.34830    0.00842    0.09866    1.000
    C1199    C        0.33220    0.04543    0.12568    1.000
    H660     H        0.25417    0.25153    0.53903    1.000
    C1200    C        0.25274    0.23445    0.58305    1.000
    C1201    C        0.29567    0.21783    0.59133    1.000
    H661     H        0.32157    0.21823    0.55333    1.000
    H662     H        0.35947    0.33263    0.42463    1.000
    C1202    C        0.33389    0.35700    0.40887    1.000
    C1203    C        0.27401    0.32976    0.42632    1.000
    H663     H        0.25947    0.28713    0.45373    1.000
    H664     H        0.45967    0.06263    0.07773    1.000
    C1204    C        0.50987    0.07483    0.07119    1.000
    C1205    C        0.54502    0.09603    0.11830    1.000
    H665     H        0.51827    0.09793    0.15633    1.000
    H666     H        0.36427    0.00093    0.09503    1.000
    C1206    C        0.31668    0.99309    0.08261    1.000
    C1207    C        0.30075    0.03047    0.10921    1.000
    H667     H        0.33697    0.06273    0.14063    1.000
    H668     H        0.23517    0.23843    0.59043    1.000
    C1208    C        0.26788    0.22094    0.60286    1.000
    H669     H        0.30817    0.21183    0.60523    1.000
    H670     H        0.35257    0.37453    0.39763    1.000
    C1209    C        0.30188    0.35594    0.40951    1.000
    H671     H        0.25257    0.32903    0.42673    1.000
    H672     H        0.50777    0.06903    0.04983    1.000
    C1210    C        0.54190    0.08739    0.08640    1.000
    H673     H        0.56647    0.10443    0.12853    1.000
    H674     H        0.31137    0.97493    0.06853    1.000
    C1211    C        0.29295    0.00456    0.08738    1.000
    H675     H        0.28497    0.03813    0.11303    1.000
    C1212    C        0.25745    0.21331    0.63673    1.000
    C1213    C        0.29723    0.38123    0.39191    1.000
    C1214    C        0.57507    0.09103    0.06903    1.000
    C1215    C        0.25939    0.98940    0.07019    1.000
    O265     O        0.26839    0.19677    0.65282    1.000
    O266     O        0.23608    0.22112    0.64870    1.000
    O267     O        0.26671    0.37377    0.38246    1.000
    O268     O        0.32012    0.41113    0.38689    1.000
    O269     O        0.60256    0.10531    0.07913    1.000
    O270     O        0.56707    0.08113    0.04043    1.000
    In34     In       0.23839    0.19331    0.69551    1.000
    O271     O        0.18214    0.17619    0.70392    1.000
    O272     O        0.19444    0.14536    0.67200    1.000
    C1216    C        0.17266    0.14920    0.68783    1.000
    C1217    C        0.13574    0.11948    0.68786    1.000
    C1218    C        0.12777    0.08855    0.67244    1.000
    C1219    C        0.11028    0.12149    0.70560    1.000
    H676     H        0.14487    0.08723    0.66053    1.000
    C1220    C        0.09433    0.05962    0.67476    1.000
    C1221    C        0.07686    0.09257    0.70791    1.000
    H677     H        0.11567    0.14223    0.71593    1.000
    H678     H        0.08897    0.03893    0.66443    1.000
    C1222    C        0.06888    0.06163    0.69250    1.000
    H679     H        0.05987    0.09393    0.71983    1.000
    C1223    C        0.03247    0.02973    0.69553    1.000
    C1224    C        0.02907    0.99653    0.69539    1.000
    H680     H        0.04887    0.99433    0.69523    1.000
    In35     In       0.09428    0.46805    0.70761    1.000
    O273     O        0.08406    0.49124    0.75254    1.000
    O274     O        0.05813    0.48983    0.70844    1.000
    O275     O        0.11185    0.44490    0.66856    1.000
    O276     O        0.07358    0.45985    0.65741    1.000
    O277     O        0.15055    0.49446    0.72378    1.000
    O278     O        0.13451    0.52174    0.69055    1.000
    O279     O        0.04454    0.41584    0.71842    1.000
    O280     O        0.09493    0.42790    0.74033    1.000
    C1225    C        0.06342    0.49869    0.73733    1.000
    C1226    C        0.09301    0.44791    0.64830    1.000
    C1227    C        0.15905    0.52152    0.70669    1.000
    C1228    C        0.04666    0.51598    0.75293    1.000
    C1229    C        0.09265    0.43848    0.61512    1.000
    C1230    C        0.19487    0.55127    0.70695    1.000
    C1231    C        0.02804    0.52696    0.73424    1.000
    C1232    C        0.04836    0.52108    0.78545    1.000
    C1233    C        0.11476    0.42692    0.60439    1.000
    C1234    C        0.07065    0.44214    0.59380    1.000
    C1235    C        0.22101    0.54839    0.72276    1.000
    C1236    C        0.20303    0.58268    0.69168    1.000
    H681     H        0.02693    0.52357    0.71247    1.000
    C1237    C        0.01112    0.54303    0.74808    1.000
    C1238    C        0.03144    0.53715    0.79929    1.000
    H682     H        0.06083    0.51377    0.79797    1.000
    H683     H        0.13013    0.42537    0.61847    1.000
    C1239    C        0.11455    0.41766    0.57331    1.000
    C1240    C        0.07073    0.43314    0.56263    1.000
    H684     H        0.05613    0.45057    0.60047    1.000
    H685     H        0.21583    0.52787    0.73327    1.000
    C1241    C        0.25410    0.57590    0.72260    1.000
    C1242    C        0.23636    0.61009    0.69286    1.000
    H686     H        0.18583    0.58477    0.68087    1.000
    H687     H        0.99863    0.55037    0.73557    1.000
    C1243    C        0.01283    0.54813    0.78061    1.000
    H688     H        0.03263    0.54057    0.82107    1.000
    H689     H        0.12913    0.40937    0.56667    1.000
    C1244    C        0.09232    0.42077    0.55199    1.000
    H690     H        0.05593    0.43537    0.54837    1.000
    H691     H        0.27153    0.57337    0.73247    1.000
    C1245    C        0.26323    0.60816    0.70816    1.000
    H692     H        0.24143    0.63097    0.68307    1.000
    C1246    C        0.99566    0.56683    0.79530    1.000
    C1247    C        0.09068    0.41047    0.51747    1.000
    C1248    C        0.29903    0.63851    0.70959    1.000
    C1249    C        0.98253    0.55837    0.82589    1.000
    C1250    C        0.99424    0.59344    0.77899    1.000
    C1251    C        0.12090    0.41663    0.50234    1.000
    C1252    C        0.05919    0.39557    0.50229    1.000
    C1253    C        0.30563    0.67234    0.70911    1.000
    H693     H        0.98343    0.54057    0.83677    1.000
    C1254    C        0.96802    0.57655    0.84017    1.000
    C1255    C        0.97973    0.61162    0.79328    1.000
    H694     H        0.00303    0.59907    0.75857    1.000
    H695     H        0.14223    0.42757    0.51287    1.000
    C1256    C        0.11894    0.40617    0.47075    1.000
    C1257    C        0.05665    0.38517    0.47064    1.000
    H696     H        0.03943    0.39237    0.51297    1.000
    H697     H        0.28683    0.67627    0.70847    1.000
    C1258    C        0.96661    0.60317    0.82387    1.000
    C1259    C        0.95590    0.56917    0.87388    1.000
    C1260    C        0.97683    0.63905    0.77520    1.000
    C1261    C        0.08665    0.39047    0.45545    1.000
    C1262    C        0.15082    0.41295    0.45311    1.000
    C1263    C        0.02258    0.36852    0.45363    1.000
    H698     H        0.95683    0.61527    0.83347    1.000
    C1264    C        0.93070    0.57531    0.88563    1.000
    C1265    C        0.97136    0.55647    0.89421    1.000
    C1266    C        0.00470    0.66523    0.75838    1.000
    C1267    C        0.94481    0.63798    0.77584    1.000
    H699     H        0.08523    0.38337    0.43457    1.000
    C1268    C        0.14770    0.40431    0.42122    1.000
    C1269    C        0.18281    0.42548    0.46833    1.000
    C1270    C        0.01496    0.34176    0.43200    1.000
    C1271    C        0.99886    0.37877    0.45902    1.000
    H700     H        0.92083    0.58487    0.87237    1.000
    C1272    C        0.91940    0.56779    0.91639    1.000
    C1273    C        0.96233    0.55117    0.92467    1.000
    H701     H        0.98823    0.55157    0.88667    1.000
    H702     H        0.02613    0.66597    0.75797    1.000
    C1274    C        0.00055    0.69034    0.74221    1.000
    C1275    C        0.94067    0.66310    0.75966    1.000
    H703     H        0.92613    0.62047    0.78707    1.000
    H704     H        0.12633    0.39597    0.41107    1.000
    C1276    C        0.17653    0.40817    0.40453    1.000
    C1277    C        0.21168    0.42937    0.45164    1.000
    H705     H        0.18493    0.43127    0.48967    1.000
    H706     H        0.03093    0.33427    0.42837    1.000
    C1278    C        0.98334    0.32643    0.41595    1.000
    C1279    C        0.96741    0.36381    0.44255    1.000
    H707     H        0.00363    0.39607    0.47397    1.000
    H708     H        0.90183    0.57177    0.92377    1.000
    C1280    C        0.93454    0.55428    0.93620    1.000
    H709     H        0.97483    0.54517    0.93857    1.000
    H710     H        0.01923    0.70787    0.73097    1.000
    C1281    C        0.96854    0.68928    0.74285    1.000
    H711     H        0.91923    0.66237    0.76007    1.000
    H712     H        0.17443    0.40237    0.38317    1.000
    C1282    C        0.20856    0.42073    0.41974    1.000
    H713     H        0.23313    0.43777    0.46187    1.000
    H714     H        0.97803    0.30827    0.40187    1.000
    C1283    C        0.95961    0.33790    0.42072    1.000
    H715     H        0.95163    0.37147    0.44637    1.000
    C1284    C        0.92411    0.54665    0.97007    1.000
    C1285    C        0.96389    0.71457    0.72525    1.000
    C1286    C        0.24173    0.42437    0.40237    1.000
    C1287    C        0.92605    0.32274    0.40353    1.000
    O281     O        0.93505    0.53011    0.98616    1.000
    O282     O        0.90274    0.55446    0.98204    1.000
    O283     O        0.93337    0.70711    0.71580    1.000
    O284     O        0.98678    0.74447    0.72023    1.000
    O285     O        0.26922    0.43865    0.41247    1.000
    O286     O        0.23373    0.41447    0.37377    1.000
    In36     In       0.90505    0.52664    0.02884    1.000
    O287     O        0.84880    0.50953    0.03726    1.000
    O288     O        0.86110    0.47870    0.00534    1.000
    C1288    C        0.83932    0.48254    0.02117    1.000
    C1289    C        0.80240    0.45282    0.02120    1.000
    C1290    C        0.79443    0.42189    0.00578    1.000
    C1291    C        0.77694    0.45483    0.03894    1.000
    H716     H        0.81153    0.42057    0.99387    1.000
    C1292    C        0.76099    0.39296    0.00810    1.000
    C1293    C        0.74352    0.42591    0.04125    1.000
    H717     H        0.78233    0.47557    0.04927    1.000
    H718     H        0.75563    0.37227    0.99777    1.000
    C1294    C        0.73554    0.39497    0.02584    1.000
    H719     H        0.72653    0.42727    0.05317    1.000
    C1295    C        0.69913    0.36307    0.02887    1.000
    C1296    C        0.69573    0.32987    0.02873    1.000
    H720     H        0.71553    0.32767    0.02857    1.000
