# CIF file generated by openbabel 3.1.0, see https://openbabel.org
data_I
_chemical_name_common 'image0'
_cell_length_a 8.9999
_cell_length_b 9.1123
_cell_length_c 9.4932
_cell_angle_alpha 90.837
_cell_angle_beta 94.231
_cell_angle_gamma 94.178
_space_group_name_H-M_alt 'P 1'
_space_group_name_Hall 'P 1'
loop_
    _symmetry_equiv_pos_as_xyz
    x,y,z
loop_
    _atom_site_label
    _atom_site_type_symbol
    _atom_site_fract_x
    _atom_site_fract_y
    _atom_site_fract_z
    _atom_site_occupancy
    Ga1      Ga       0.28306    0.07308    0.61728    1.000
    Ga2      Ga       0.61057    0.34147    0.13351    1.000
    Ga3      Ga       0.19182    0.09975    0.09224    1.000
    P1       P        0.43931    0.14548    0.33640    1.000
    P2       P        0.36696    0.29998    0.88344    1.000
    P3       P        0.12759    0.86355    0.86230    1.000
    O1       O        0.34150    0.17900    0.45510    1.000
    O2       O        0.34710    0.06170    0.21400    1.000
    O3       O        0.56700    0.05790    0.38290    1.000
    O4       O        0.49790    0.29760    0.27980    1.000
    O5       O        0.23560    0.24420    0.96830    1.000
    O6       O        0.36680    0.22870    0.73970    1.000
    O7       O        0.51430    0.27310    0.96740    1.000
    O8       O        0.35220    0.46290    0.86700    1.000
    O9       O        0.19950    0.71640    0.85300    1.000
    O10      O        0.13580    0.91570    0.01900    1.000
    O11      O        0.20290    0.97840    0.77800    1.000
    O12      O        0.96120    0.83230    0.81270    1.000
    O13      O        0.07730    0.15950    0.58870    1.000
    O14      O        0.84120    0.09490    0.51060    1.000
    C1       C        0.97620    0.07310    0.52850    1.000
    Ga4      Ga       0.71694    0.92692    0.38272    1.000
    Ga5      Ga       0.38943    0.65853    0.86649    1.000
    Ga6      Ga       0.80818    0.90025    0.90776    1.000
    P4       P        0.56069    0.85452    0.66360    1.000
    P5       P        0.63304    0.70002    0.11656    1.000
    P6       P        0.87241    0.13645    0.13770    1.000
    O15      O        0.65850    0.82100    0.54490    1.000
    O16      O        0.65290    0.93830    0.78600    1.000
    O17      O        0.43300    0.94210    0.61710    1.000
    O18      O        0.50210    0.70240    0.72020    1.000
    O19      O        0.76440    0.75580    0.03170    1.000
    O20      O        0.63320    0.77130    0.26030    1.000
    O21      O        0.48570    0.72690    0.03260    1.000
    O22      O        0.64780    0.53710    0.13300    1.000
    O23      O        0.80050    0.28360    0.14700    1.000
    O24      O        0.86420    0.08430    0.98100    1.000
    O25      O        0.79710    0.02160    0.22200    1.000
    O26      O        0.03880    0.16770    0.18730    1.000
    O27      O        0.92270    0.84050    0.41130    1.000
    O28      O        0.15880    0.90510    0.48940    1.000
    C2       C        0.02380    0.92690    0.47150    1.000
