# CIF file generated by openbabel 3.1.0, see https://openbabel.org
data_I
_chemical_name_common 'MICPAQ_clean'
_cell_length_a 13.047
_cell_length_b 13.279
_cell_length_c 16.6145
_cell_angle_alpha 111.121
_cell_angle_beta 109.442
_cell_angle_gamma 92.734
_space_group_name_H-M_alt 'P 1'
_space_group_name_Hall 'P 1'
loop_
    _symmetry_equiv_pos_as_xyz
    x,y,z
loop_
    _atom_site_label
    _atom_site_type_symbol
    _atom_site_fract_x
    _atom_site_fract_y
    _atom_site_fract_z
    _atom_site_occupancy
    Cd1      Cd       0.61748    0.37919    0.25077    1.000
    Cd2      Cd       0.38252    0.62081    0.74923    1.000
    H1       H        0.54190    0.22100    0.03090    1.000
    H2       H        0.84620    0.31730    0.22010    1.000
    H3       H        0.60520    0.12530    0.91830    1.000
    H4       H        0.91590    0.22060    0.11280    1.000
    H5       H        0.74870    0.03600    0.87420    1.000
    H6       H        0.83190    0.14490    0.89880    1.000
    H7       H        0.35910    0.27170    0.09710    1.000
    H8       H        0.54280    0.55410    0.16220    1.000
    H9       H        0.21610    0.30790    0.98740    1.000
    H10      H        0.39840    0.60190    0.06560    1.000
    H11      H        0.21760    0.56080    0.94900    1.000
    H12      H        0.17360    0.43260    0.88360    1.000
    H13      H        0.44980    0.44990    0.35700    1.000
    H14      H        0.71950    0.63780    0.39800    1.000
    H15      H        0.39690    0.59630    0.45270    1.000
    H16      H        0.67320    0.79020    0.49220    1.000
    H17      H        0.55830    0.82600    0.61570    1.000
    H18      H        0.42970    0.78350    0.55030    1.000
    H19      H        0.69300    0.15990    0.27190    1.000
    H20      H        0.76990    0.45600    0.47080    1.000
    H21      H        0.79190    0.08870    0.37630    1.000
    H22      H        0.87360    0.39590    0.57980    1.000
    H23      H        0.97110    0.25690    0.61480    1.000
    H24      H        0.85960    0.18270    0.59740    1.000
    H25      H        0.45810    0.77900    0.96910    1.000
    H26      H        0.15380    0.68270    0.77990    1.000
    H27      H        0.39480    0.87470    0.08170    1.000
    H28      H        0.08410    0.77940    0.88720    1.000
    H29      H        0.25130    0.96400    0.12580    1.000
    H30      H        0.16810    0.85510    0.10120    1.000
    H31      H        0.64090    0.72830    0.90290    1.000
    H32      H        0.45720    0.44590    0.83780    1.000
    H33      H        0.78390    0.69210    0.01260    1.000
    H34      H        0.60160    0.39810    0.93440    1.000
    H35      H        0.78240    0.43920    0.05100    1.000
    H36      H        0.82640    0.56740    0.11640    1.000
    H37      H        0.55020    0.55010    0.64300    1.000
    H38      H        0.28050    0.36220    0.60200    1.000
    H39      H        0.60310    0.40370    0.54730    1.000
    H40      H        0.32680    0.20980    0.50780    1.000
    H41      H        0.44170    0.17400    0.38430    1.000
    H42      H        0.57030    0.21650    0.44970    1.000
    H43      H        0.30700    0.84010    0.72810    1.000
    H44      H        0.23010    0.54400    0.52920    1.000
    H45      H        0.20810    0.91130    0.62370    1.000
    H46      H        0.12640    0.60410    0.42020    1.000
    H47      H        0.02890    0.74310    0.38520    1.000
    H48      H        0.14040    0.81730    0.40260    1.000
    C1       C        0.61920    0.22140    0.04800    1.000
    C2       C        0.79600    0.27680    0.15780    1.000
    C3       C        0.65660    0.16370    0.98040    1.000
    C4       C        0.83860    0.21980    0.09400    1.000
    C5       C        0.76850    0.15990    0.00040    1.000
    C6       C        0.80970    0.09550    0.92510    1.000
    C7       C        0.90710    0.04580    0.96280    1.000
    C8       C        0.01590    0.10240    0.99590    1.000
    C9       C        0.10450    0.05780    0.03180    1.000
    C10      C        0.36960    0.33860    0.08970    1.000
    C11      C        0.47440    0.50340    0.12830    1.000
    C12      C        0.28180    0.36190    0.02510    1.000
    C13      C        0.38830    0.53240    0.06900    1.000
    C14      C        0.28900    0.45990    0.01560    1.000
    C15      C        0.19320    0.48830    0.94770    1.000
    C16      C        0.09250    0.49130    0.97370    1.000
    C17      C        0.08730    0.58370    0.04530    1.000
    C18      C        0.99790    0.59230    0.06980    1.000
    C19      C        0.49570    0.52060    0.38480    1.000
    C20      C        0.65270    0.62970    0.40820    1.000
    C21      C        0.46320    0.60690    0.44240    1.000
    C22      C        0.62630    0.72020    0.46560    1.000
    C23      C        0.53260    0.70940    0.48440    1.000
    C24      C        0.50400    0.80560    0.55160    1.000
    C25      C        0.50510    0.90670    0.52510    1.000
    C26      C        0.41690    0.91310    0.45210    1.000
    C27      C        0.41110    0.00270    0.42690    1.000
    C28      C        0.73040    0.20850    0.33530    1.000
    C29      C        0.77600    0.38070    0.45140    1.000
    C30      C        0.78910    0.16480    0.39720    1.000
    C31      C        0.83680    0.34530    0.51700    1.000
    C32      C        0.84420    0.23550    0.49150    1.000
    C33      C        0.90900    0.19660    0.56690    1.000
    C34      C        0.95560    0.09390    0.53280    1.000
    C35      C        0.06000    0.10560    0.53170    1.000
    C36      C        0.10340    0.01190    0.50030    1.000
    C37      C        0.38080    0.77860    0.95200    1.000
    C38      C        0.20400    0.72320    0.84220    1.000
    C39      C        0.34340    0.83630    0.01960    1.000
    C40      C        0.16140    0.78020    0.90600    1.000
    C41      C        0.23150    0.84010    0.99960    1.000
    C42      C        0.19030    0.90450    0.07490    1.000
    C43      C        0.09290    0.95420    0.03720    1.000
    C44      C        0.98410    0.89760    0.00410    1.000
    C45      C        0.89550    0.94220    0.96820    1.000
    C46      C        0.63040    0.66140    0.91030    1.000
    C47      C        0.52560    0.49660    0.87170    1.000
    C48      C        0.71820    0.63810    0.97490    1.000
    C49      C        0.61170    0.46760    0.93100    1.000
    C50      C        0.71100    0.54010    0.98440    1.000
    C51      C        0.80680    0.51170    0.05230    1.000
    C52      C        0.90750    0.50870    0.02630    1.000
    C53      C        0.91270    0.41630    0.95470    1.000
    C54      C        0.00210    0.40770    0.93020    1.000
    C55      C        0.50430    0.47940    0.61520    1.000
    C56      C        0.34730    0.37030    0.59180    1.000
    C57      C        0.53680    0.39310    0.55760    1.000
    C58      C        0.37370    0.27980    0.53440    1.000
    C59      C        0.46740    0.29060    0.51560    1.000
    C60      C        0.49600    0.19440    0.44840    1.000
    C61      C        0.49490    0.09330    0.47490    1.000
    C62      C        0.58310    0.08690    0.54790    1.000
    C63      C        0.58890    0.99730    0.57310    1.000
    C64      C        0.26960    0.79150    0.66470    1.000
    C65      C        0.22400    0.61930    0.54860    1.000
    C66      C        0.21090    0.83520    0.60280    1.000
    C67      C        0.16320    0.65470    0.48300    1.000
    C68      C        0.15580    0.76450    0.50850    1.000
    C69      C        0.09100    0.80340    0.43310    1.000
    C70      C        0.04440    0.90610    0.46720    1.000
    C71      C        0.94000    0.89440    0.46830    1.000
    C72      C        0.89660    0.98810    0.49970    1.000
    N1       N        0.68690    0.27960    0.13850    1.000
    N2       N        0.46760    0.40930    0.14090    1.000
    N3       N        0.58530    0.52940    0.36590    1.000
    N4       N        0.72350    0.31330    0.35920    1.000
    N5       N        0.31310    0.72040    0.86150    1.000
    N6       N        0.53240    0.59070    0.85910    1.000
    N7       N        0.41470    0.47060    0.63410    1.000
    N8       N        0.27650    0.68670    0.64080    1.000
    F1       F        0.03310    0.20280    0.99360    1.000
    F2       F        0.20670    0.11630    0.06060    1.000
    F3       F        0.17500    0.66980    0.09130    1.000
    F4       F        0.00190    0.68500    0.13950    1.000
    F5       F        0.33120    0.82610    0.40100    1.000
    F6       F        0.32230    0.00100    0.35420    1.000
    F7       F        0.12130    0.20490    0.56160    1.000
    F8       F        0.20510    0.02660    0.50110    1.000
    F9       F        0.96690    0.79720    0.00640    1.000
    F10      F        0.79330    0.88370    0.93940    1.000
    F11      F        0.82500    0.33020    0.90870    1.000
    F12      F        0.99810    0.31500    0.86050    1.000
    F13      F        0.66880    0.17390    0.59900    1.000
    F14      F        0.67770    0.99900    0.64580    1.000
    F15      F        0.87870    0.79510    0.43840    1.000
    F16      F        0.79490    0.97340    0.49890    1.000
