# CIF file generated by openbabel 3.1.0, see https://openbabel.org
data_I
_chemical_name_common 'image0'
_cell_length_a 12.711
_cell_length_b 24.3
_cell_length_c 15.085
_cell_angle_alpha 90
_cell_angle_beta 92.506
_cell_angle_gamma 90
_space_group_name_H-M_alt 'P 1'
_space_group_name_Hall 'P 1'
loop_
    _symmetry_equiv_pos_as_xyz
    x,y,z
loop_
    _atom_site_label
    _atom_site_type_symbol
    _atom_site_fract_x
    _atom_site_fract_y
    _atom_site_fract_z
    _atom_site_occupancy
    Cd1      Cd       0.96281    0.13416    0.55485    1.000
    Cd2      Cd       0.49703    0.13971    0.27898    1.000
    Cd3      Cd       0.95838    0.12973    0.82682    1.000
    Cd4      Cd       0.51027    0.13387    0.00664    1.000
    N1       N        0.91250    0.56670    0.18570    1.000
    O1       O        0.07380    0.20195    0.80270    1.000
    N2       N        0.17050    0.69578    0.44590    1.000
    N3       N        0.38140    0.07087    0.02280    1.000
    O2       O        0.39830    0.20482    0.04130    1.000
    N4       N        0.36550    0.70008    0.71200    1.000
    N5       N        0.09610    0.07233    0.55820    1.000
    N6       N        0.64570    0.19427    0.02990    1.000
    N7       N        0.17200    0.69283    0.18490    1.000
    O3       O        0.50950    0.12218    0.44649    1.000
    C1       C        0.99720    0.12382    0.04570    1.000
    N8       N        0.24800    0.77648    0.42680    1.000
    O4       O        0.00840    0.14700    0.97306    1.000
    O5       O        0.42000    0.19211    0.39390    1.000
    C2       C        0.75480    0.32439    0.09970    1.000
    C3       C        0.36480    0.21617    0.11590    1.000
    C4       C        0.37140    0.75267    0.69060    1.000
    H1       H        0.43440    0.77190    0.68720    1.000
    C5       C        0.44980    0.16210    0.45630    1.000
    C6       C        0.27140    0.68930    0.21960    1.000
    H2       H        0.30100    0.65810    0.24610    1.000
    C7       C        0.47170    0.13630    0.78920    1.000
    N9       N        0.24890    0.77375    0.16970    1.000
    O6       O        0.95170    0.11277    0.38837    1.000
    C8       C        0.79970    0.43236    0.14780    1.000
    O7       O        0.04320    0.18320    0.44290    1.000
    C9       C        0.00770    0.13830    0.21260    1.000
    H3       H        0.95950    0.11000    0.21950    1.000
    C10      C        0.42230    0.16188    0.70660    1.000
    C11      C        0.15390    0.22237    0.19360    1.000
    O8       O        0.06010    0.19602    0.65340    1.000
    C12      C        0.63800    0.24656    0.05100    1.000
    H4       H        0.57480    0.26580    0.05030    1.000
    N10      N        0.29420    0.99565    0.31490    1.000
    C13      C        0.38470    0.02399    0.31140    1.000
    H5       H        0.45020    0.00990    0.32950    1.000
    C14      C        0.01050    0.15297    0.37850    1.000
    C15      C        0.25080    0.83079    0.64820    1.000
    C16      C        0.30140    0.22759    0.63960    1.000
    O9       O        0.45550    0.15765    0.86302    1.000
    C17      C        0.74820    0.18230    0.03970    1.000
    H6       H        0.77670    0.14770    0.02980    1.000
    C18      C        0.26070    0.83186    0.39910    1.000
    C19      C        0.39380    0.02004    0.05150    1.000
    H7       H        0.45940    0.00390    0.06270    1.000
    N11      N        0.37040    0.07375    0.27970    1.000
    N12      N        0.30350    0.99398    0.06270    1.000
    C20      C        0.45850    0.14890    0.62260    1.000
    H8       H        0.51100    0.12260    0.61640    1.000
    C21      C        0.09300    0.21717    0.72530    1.000
    O10      O        0.94860    0.07848    0.05510    1.000
    C22      C        0.11480    0.19416    0.11950    1.000
    H9       H        0.13750    0.20350    0.06370    1.000
    O11      O        0.38780    0.19398    0.18730    1.000
    O12      O        0.22450    0.26506    0.18930    1.000
    O13      O        0.22460    0.26780    0.64384    1.000
    N13      N        0.27570    0.77536    0.67420    1.000
    C23      C        0.28360    0.94048    0.34380    1.000
    N14      N        0.73320    0.26928    0.07410    1.000
    C24      C        0.04610    0.16745    0.28710    1.000
    C25      C        0.17520    0.86740    0.39950    1.000
    H10      H        0.11070    0.85500    0.41830    1.000
    C26      C        0.26480    0.83030    0.14480    1.000
    C27      C        0.29080    0.26616    0.11560    1.000
    H11      H        0.24730    0.26650    0.06040    1.000
    C28      C        0.09180    0.02103    0.58380    1.000
    H12      H        0.03180    0.00500    0.60560    1.000
    C29      C        0.36930    0.90570    0.34770    1.000
    H13      H        0.43470    0.91850    0.33170    1.000
    C30      C        0.85450    0.34460    0.09680    1.000
    H14      H        0.90760    0.32200    0.07710    1.000
    O14      O        0.52860    0.09388    0.78020    1.000
    C31      C        0.09370    0.32014    0.71450    1.000
    H15      H        0.13870    0.35180    0.71160    1.000
    H16      H        0.05200    0.32280    0.76580    1.000
    H17      H        0.04830    0.31860    0.66200    1.000
    C32      C        0.69900    0.41243    0.14930    1.000
    H18      H        0.64480    0.43560    0.16520    1.000
    C33      C        0.16070    0.26829    0.72080    1.000
    H19      H        0.20690    0.27030    0.77440    1.000
    C34      C        0.18630    0.92200    0.37160    1.000
    H20      H        0.12910    0.94590    0.37150    1.000
    N15      N        0.18260    0.99392    0.57550    1.000
    N16      N        0.82250    0.48826    0.17230    1.000
    C35      C        0.11860    0.20959    0.27760    1.000
    H21      H        0.14370    0.22930    0.32700    1.000
    C36      C        0.29090    0.93863    0.09220    1.000
    C37      C        0.34320    0.20004    0.71460    1.000
    H22      H        0.31740    0.20750    0.77010    1.000
    C38      C        0.04070    0.15127    0.12780    1.000
    C39      C        0.27570    0.69150    0.47290    1.000
    H23      H        0.30800    0.65980    0.49560    1.000
    C40      C        0.41420    0.17620    0.54820    1.000
    C41      C        0.20650    0.93886    0.60020    1.000
    C42      C        0.33030    0.86520    0.62180    1.000
    H24      H        0.39860    0.85190    0.61890    1.000
    C43      C        0.67720    0.35910    0.12770    1.000
    H25      H        0.60890    0.34580    0.13190    1.000
    C44      C        0.21620    0.03020    0.28130    1.000
    H26      H        0.14450    0.02260    0.27460    1.000
    C45      C        0.32270    0.73857    0.21000    1.000
    H27      H        0.39220    0.74670    0.22690    1.000
    C46      C        0.91470    0.51464    0.15970    1.000
    H28      H        0.97290    0.49810    0.13570    1.000
    C47      C        0.33670    0.21560    0.55720    1.000
    H29      H        0.30870    0.23390    0.50740    1.000
    C48      C        0.19450    0.92090    0.11680    1.000
    H30      H        0.13790    0.94520    0.11670    1.000
    C49      C        0.15780    0.74671    0.41880    1.000
    H31      H        0.09400    0.76090    0.39650    1.000
    C50      C        0.36200    0.84880    0.12250    1.000
    H32      H        0.41970    0.82520    0.12580    1.000
    C51      C        0.26560    0.07750    0.25990    1.000
    H33      H        0.23220    0.10820    0.23510    1.000
    C52      C        0.32450    0.74040    0.46110    1.000
    H34      H        0.39520    0.74830    0.47340    1.000
    C53      C        0.27290    0.07770    0.01210    1.000
    H35      H        0.23860    0.10930    0.99130    1.000
    C54      C        0.22570    0.03060    0.03720    1.000
    H36      H        0.15350    0.02410    0.03710    1.000
    C55      C        0.75900    0.52540    0.20940    1.000
    H37      H        0.69070    0.51920    0.22680    1.000
    C56      C        0.20270    0.73350    0.68390    1.000
    H38      H        0.12980    0.73620    0.67730    1.000
    C57      C        0.25990    0.68760    0.70520    1.000
    H39      H        0.23160    0.65280    0.71390    1.000
    C58      C        0.35820    0.85130    0.37550    1.000
    H40      H        0.41640    0.82800    0.37820    1.000
    C59      C        0.19300    0.07920    0.53030    1.000
    H41      H        0.21870    0.11180    0.50730    1.000
    C60      C        0.18130    0.86580    0.14210    1.000
    H42      H        0.11520    0.85340    0.15720    1.000
    C61      C        0.35530    0.31850    0.12220    1.000
    H43      H        0.30900    0.34970    0.12180    1.000
    H44      H        0.40000    0.32070    0.07270    1.000
    H45      H        0.39780    0.31820    0.17640    1.000
    C62      C        0.30880    0.91930    0.59970    1.000
    H46      H        0.36320    0.94260    0.58450    1.000
    C63      C        0.12790    0.90400    0.62310    1.000
    H47      H        0.05870    0.91650    0.62220    1.000
    C64      C        0.37390    0.90236    0.09540    1.000
    H48      H        0.43970    0.91430    0.07880    1.000
    C65      C        0.24930    0.03160    0.54020    1.000
    H49      H        0.31880    0.02590    0.52580    1.000
    C66      C        0.81260    0.57330    0.21690    1.000
    H50      H        0.78620    0.60590    0.23950    1.000
    C67      C        0.15040    0.85000    0.64790    1.000
    H51      H        0.09630    0.82690    0.66440    1.000
    C68      C        0.87840    0.39720    0.12210    1.000
    H52      H        0.94770    0.40950    0.12200    1.000
    C69      C        0.80560    0.22720    0.06610    1.000
    H53      H        0.87820    0.22920    0.07660    1.000
    C70      C        0.15980    0.74479    0.15450    1.000
    H54      H        0.09850    0.75860    0.12700    1.000
    Cd5      Cd       0.03719    0.63416    0.44515    1.000
    Cd6      Cd       0.50297    0.63971    0.72102    1.000
    Cd7      Cd       0.04162    0.62973    0.17318    1.000
    Cd8      Cd       0.48973    0.63387    0.99336    1.000
    N17      N        0.08750    0.06670    0.81430    1.000
    O15      O        0.92620    0.70195    0.19730    1.000
    N18      N        0.82950    0.19578    0.55410    1.000
    N19      N        0.61860    0.57087    0.97720    1.000
    O16      O        0.60170    0.70482    0.95870    1.000
    N20      N        0.63450    0.20008    0.28800    1.000
    N21      N        0.90390    0.57233    0.44180    1.000
    N22      N        0.35430    0.69427    0.97010    1.000
    N23      N        0.82800    0.19283    0.81510    1.000
    O17      O        0.49050    0.62218    0.55351    1.000
    C71      C        0.00280    0.62382    0.95430    1.000
    N24      N        0.75200    0.27648    0.57320    1.000
    O18      O        0.99160    0.64700    0.02694    1.000
    O19      O        0.58000    0.69211    0.60610    1.000
    C72      C        0.24520    0.82439    0.90030    1.000
    C73      C        0.63520    0.71617    0.88410    1.000
    C74      C        0.62860    0.25267    0.30940    1.000
    H55      H        0.56560    0.27190    0.31280    1.000
    C75      C        0.55020    0.66210    0.54370    1.000
    C76      C        0.72860    0.18930    0.78040    1.000
    H56      H        0.69900    0.15810    0.75390    1.000
    C77      C        0.52830    0.63630    0.21080    1.000
    N25      N        0.75110    0.27375    0.83030    1.000
    O20      O        0.04830    0.61277    0.61163    1.000
    C78      C        0.20030    0.93236    0.85220    1.000
    O21      O        0.95680    0.68320    0.55710    1.000
    C79      C        0.99230    0.63830    0.78740    1.000
    H57      H        0.04050    0.61000    0.78050    1.000
    C80      C        0.57770    0.66188    0.29340    1.000
    C81      C        0.84610    0.72237    0.80640    1.000
    O22      O        0.93990    0.69602    0.34660    1.000
    C82      C        0.36200    0.74656    0.94900    1.000
    H58      H        0.42520    0.76580    0.94970    1.000
    N26      N        0.70580    0.49565    0.68510    1.000
    C83      C        0.61530    0.52399    0.68860    1.000
    H59      H        0.54980    0.50990    0.67050    1.000
    C84      C        0.98950    0.65297    0.62150    1.000
    C85      C        0.74920    0.33079    0.35180    1.000
    C86      C        0.69860    0.72759    0.36040    1.000
    O23      O        0.54450    0.65765    0.13698    1.000
    C87      C        0.25180    0.68230    0.96030    1.000
    H60      H        0.22330    0.64770    0.97020    1.000
    C88      C        0.73930    0.33186    0.60090    1.000
    C89      C        0.60620    0.52004    0.94850    1.000
    H61      H        0.54060    0.50390    0.93730    1.000
    N27      N        0.62960    0.57375    0.72030    1.000
    N28      N        0.69650    0.49398    0.93730    1.000
    C90      C        0.54150    0.64890    0.37740    1.000
    H62      H        0.48900    0.62260    0.38360    1.000
    C91      C        0.90700    0.71717    0.27470    1.000
    O24      O        0.05140    0.57848    0.94490    1.000
    C92      C        0.88520    0.69416    0.88050    1.000
    H63      H        0.86250    0.70350    0.93630    1.000
    O25      O        0.61220    0.69398    0.81270    1.000
    O26      O        0.77550    0.76506    0.81070    1.000
    O27      O        0.77540    0.76780    0.35616    1.000
    N29      N        0.72430    0.27536    0.32580    1.000
    C93      C        0.71640    0.44048    0.65620    1.000
    N30      N        0.26680    0.76928    0.92590    1.000
    C94      C        0.95390    0.66745    0.71290    1.000
    C95      C        0.82480    0.36740    0.60050    1.000
    H64      H        0.88930    0.35500    0.58170    1.000
    C96      C        0.73520    0.33030    0.85520    1.000
    C97      C        0.70920    0.76616    0.88440    1.000
    H65      H        0.75270    0.76650    0.93960    1.000
    C98      C        0.90820    0.52103    0.41620    1.000
    H66      H        0.96820    0.50500    0.39440    1.000
    C99      C        0.63070    0.40570    0.65230    1.000
    H67      H        0.56530    0.41850    0.66830    1.000
    C100     C        0.14550    0.84460    0.90320    1.000
    H68      H        0.09240    0.82200    0.92290    1.000
    O28      O        0.47140    0.59388    0.21980    1.000
    C101     C        0.90630    0.82014    0.28550    1.000
    H69      H        0.86130    0.85180    0.28840    1.000
    H70      H        0.94800    0.82280    0.23420    1.000
    H71      H        0.95170    0.81860    0.33800    1.000
    C102     C        0.30100    0.91243    0.85070    1.000
    H72      H        0.35520    0.93560    0.83480    1.000
    C103     C        0.83930    0.76829    0.27920    1.000
    H73      H        0.79310    0.77030    0.22560    1.000
    C104     C        0.81370    0.42200    0.62840    1.000
    H74      H        0.87090    0.44590    0.62850    1.000
    N31      N        0.81740    0.49392    0.42450    1.000
    N32      N        0.17750    0.98826    0.82770    1.000
    C105     C        0.88140    0.70959    0.72240    1.000
    H75      H        0.85630    0.72930    0.67300    1.000
    C106     C        0.70910    0.43863    0.90780    1.000
    C107     C        0.65680    0.70004    0.28540    1.000
    H76      H        0.68260    0.70750    0.22990    1.000
    C108     C        0.95930    0.65127    0.87220    1.000
    C109     C        0.72430    0.19150    0.52710    1.000
    H77      H        0.69200    0.15980    0.50440    1.000
    C110     C        0.58580    0.67620    0.45180    1.000
    C111     C        0.79350    0.43886    0.39980    1.000
    C112     C        0.66970    0.36520    0.37820    1.000
    H78      H        0.60140    0.35190    0.38110    1.000
    C113     C        0.32280    0.85910    0.87230    1.000
    H79      H        0.39110    0.84580    0.86810    1.000
    C114     C        0.78380    0.53020    0.71870    1.000
    H80      H        0.85550    0.52260    0.72540    1.000
    C115     C        0.67730    0.23857    0.79000    1.000
    H81      H        0.60780    0.24670    0.77310    1.000
    C116     C        0.08530    0.01464    0.84030    1.000
    H82      H        0.02710    0.99810    0.86430    1.000
    C117     C        0.66330    0.71560    0.44280    1.000
    H83      H        0.69130    0.73390    0.49260    1.000
    C118     C        0.80550    0.42090    0.88320    1.000
    H84      H        0.86210    0.44520    0.88330    1.000
    C119     C        0.84220    0.24671    0.58120    1.000
    H85      H        0.90600    0.26090    0.60350    1.000
    C120     C        0.63800    0.34880    0.87750    1.000
    H86      H        0.58030    0.32520    0.87420    1.000
    C121     C        0.73440    0.57750    0.74010    1.000
    H87      H        0.76780    0.60820    0.76490    1.000
    C122     C        0.67550    0.24040    0.53890    1.000
    H88      H        0.60480    0.24830    0.52660    1.000
    C123     C        0.72710    0.57770    0.98790    1.000
    H89      H        0.76140    0.60930    0.00870    1.000
    C124     C        0.77430    0.53060    0.96280    1.000
    H90      H        0.84650    0.52410    0.96290    1.000
    C125     C        0.24100    0.02540    0.79060    1.000
    H91      H        0.30930    0.01920    0.77320    1.000
    C126     C        0.79730    0.23350    0.31610    1.000
    H92      H        0.87020    0.23620    0.32270    1.000
    C127     C        0.74010    0.18760    0.29480    1.000
    H93      H        0.76840    0.15280    0.28610    1.000
    C128     C        0.64180    0.35130    0.62450    1.000
    H94      H        0.58360    0.32800    0.62180    1.000
    C129     C        0.80700    0.57920    0.46970    1.000
    H95      H        0.78130    0.61180    0.49270    1.000
    C130     C        0.81870    0.36580    0.85790    1.000
    H96      H        0.88480    0.35340    0.84280    1.000
    C131     C        0.64470    0.81850    0.87780    1.000
    H97      H        0.69100    0.84970    0.87820    1.000
    H98      H        0.60000    0.82070    0.92730    1.000
    H99      H        0.60220    0.81820    0.82360    1.000
    C132     C        0.69120    0.41930    0.40030    1.000
    H100     H        0.63680    0.44260    0.41550    1.000
    C133     C        0.87210    0.40400    0.37690    1.000
    H101     H        0.94130    0.41650    0.37780    1.000
    C134     C        0.62610    0.40236    0.90460    1.000
    H102     H        0.56030    0.41430    0.92120    1.000
    C135     C        0.75070    0.53160    0.45980    1.000
    H103     H        0.68120    0.52590    0.47420    1.000
    C136     C        0.18740    0.07330    0.78310    1.000
    H104     H        0.21380    0.10590    0.76050    1.000
    C137     C        0.84960    0.35000    0.35210    1.000
    H105     H        0.90370    0.32690    0.33560    1.000
    C138     C        0.12160    0.89720    0.87790    1.000
    H106     H        0.05230    0.90950    0.87800    1.000
    C139     C        0.19440    0.72720    0.93390    1.000
    H107     H        0.12180    0.72920    0.92340    1.000
    C140     C        0.84020    0.24479    0.84550    1.000
    H108     H        0.90150    0.25860    0.87300    1.000
