# CIF file generated by openbabel 3.1.0, see https://openbabel.org
data_I
_chemical_name_common 'image0'
_cell_length_a 9.5277
_cell_length_b 14.692
_cell_length_c 13.6772
_cell_angle_alpha 90
_cell_angle_beta 90
_cell_angle_gamma 90
_space_group_name_H-M_alt 'P 1'
_space_group_name_Hall 'P 1'
loop_
    _symmetry_equiv_pos_as_xyz
    x,y,z
loop_
    _atom_site_label
    _atom_site_type_symbol
    _atom_site_fract_x
    _atom_site_fract_y
    _atom_site_fract_z
    _atom_site_occupancy
    H1       H        0.76700    0.42300    0.97100    1.000
    H2       H        0.88700    0.48610    0.11100    1.000
    H3       H        0.80400    0.27600    0.94070    1.000
    H4       H        0.09350    0.25680    0.15350    1.000
    O1       O        0.07778    0.11186    0.05197    1.000
    O2       O        0.90947    0.12045    0.94283    1.000
    O3       O        0.03529    0.49398    0.26559    1.000
    O4       O        0.20195    0.39033    0.24799    1.000
    C1       C        0.02920    0.29035    0.11663    1.000
    C2       C        0.00540    0.38018    0.14248    1.000
    C3       C        0.98290    0.15333    0.00999    1.000
    C4       C        0.83400    0.39100    0.01430    1.000
    C5       C        0.95510    0.25015    0.04021    1.000
    C6       C        0.90670    0.43043    0.09050    1.000
    C7       C        0.85700    0.30100    0.99036    1.000
    C8       C        0.08650    0.42396    0.22350    1.000
    H5       H        0.73300    0.57700    0.97100    1.000
    H6       H        0.61300    0.51390    0.11100    1.000
    H7       H        0.69600    0.72400    0.94070    1.000
    H8       H        0.40650    0.74320    0.15350    1.000
    O5       O        0.42222    0.88814    0.05197    1.000
    O6       O        0.59053    0.87955    0.94283    1.000
    O7       O        0.46471    0.50602    0.26559    1.000
    O8       O        0.29805    0.60967    0.24799    1.000
    C9       C        0.47080    0.70965    0.11663    1.000
    C10      C        0.49460    0.61982    0.14248    1.000
    C11      C        0.51710    0.84667    0.00999    1.000
    C12      C        0.66600    0.60900    0.01430    1.000
    C13      C        0.54490    0.74985    0.04021    1.000
    C14      C        0.59330    0.56957    0.09050    1.000
    C15      C        0.64300    0.69900    0.99036    1.000
    C16      C        0.41350    0.57604    0.22350    1.000
    H9       H        0.73300    0.92300    0.52900    1.000
    H10      H        0.61300    0.98610    0.38900    1.000
    H11      H        0.69600    0.77600    0.55930    1.000
    H12      H        0.40650    0.75680    0.34650    1.000
    O9       O        0.42222    0.61186    0.44803    1.000
    O10      O        0.59053    0.62045    0.55717    1.000
    O11      O        0.46471    0.99398    0.23441    1.000
    O12      O        0.29805    0.89033    0.25201    1.000
    C17      C        0.47080    0.79035    0.38337    1.000
    C18      C        0.49460    0.88018    0.35752    1.000
    C19      C        0.51710    0.65333    0.49001    1.000
    C20      C        0.66600    0.89100    0.48570    1.000
    C21      C        0.54490    0.75015    0.45979    1.000
    C22      C        0.59330    0.93043    0.40950    1.000
    C23      C        0.64300    0.80100    0.50964    1.000
    C24      C        0.41350    0.92396    0.27650    1.000
    H13      H        0.76700    0.07700    0.52900    1.000
    H14      H        0.88700    0.01390    0.38900    1.000
    H15      H        0.80400    0.22400    0.55930    1.000
    H16      H        0.09350    0.24320    0.34650    1.000
    O13      O        0.07778    0.38814    0.44803    1.000
    O14      O        0.90947    0.37955    0.55717    1.000
    O15      O        0.03529    0.00602    0.23441    1.000
    O16      O        0.20195    0.10967    0.25201    1.000
    C25      C        0.02920    0.20965    0.38337    1.000
    C26      C        0.00540    0.11982    0.35752    1.000
    C27      C        0.98290    0.34667    0.49001    1.000
    C28      C        0.83400    0.10900    0.48570    1.000
    C29      C        0.95510    0.24985    0.45979    1.000
    C30      C        0.90670    0.06957    0.40950    1.000
    C31      C        0.85700    0.19900    0.50964    1.000
    C32      C        0.08650    0.07604    0.27650    1.000
    H17      H        0.23300    0.57700    0.02900    1.000
    H18      H        0.11300    0.51390    0.88900    1.000
    H19      H        0.19600    0.72400    0.05930    1.000
    H20      H        0.90650    0.74320    0.84650    1.000
    O17      O        0.92222    0.88814    0.94803    1.000
    O18      O        0.09053    0.87955    0.05717    1.000
    O19      O        0.96471    0.50602    0.73441    1.000
    O20      O        0.79805    0.60967    0.75201    1.000
    C33      C        0.97080    0.70965    0.88337    1.000
    C34      C        0.99460    0.61982    0.85752    1.000
    C35      C        0.01710    0.84667    0.99001    1.000
    C36      C        0.16600    0.60900    0.98570    1.000
    C37      C        0.04490    0.74985    0.95979    1.000
    C38      C        0.09330    0.56957    0.90950    1.000
    C39      C        0.14300    0.69900    0.00964    1.000
    C40      C        0.91350    0.57604    0.77650    1.000
    H21      H        0.26700    0.42300    0.02900    1.000
    H22      H        0.38700    0.48610    0.88900    1.000
    H23      H        0.30400    0.27600    0.05930    1.000
    H24      H        0.59350    0.25680    0.84650    1.000
    O21      O        0.57778    0.11186    0.94803    1.000
    O22      O        0.40947    0.12045    0.05717    1.000
    O23      O        0.53529    0.49398    0.73441    1.000
    O24      O        0.70195    0.39033    0.75201    1.000
    C41      C        0.52920    0.29035    0.88337    1.000
    C42      C        0.50540    0.38018    0.85752    1.000
    C43      C        0.48290    0.15333    0.99001    1.000
    C44      C        0.33400    0.39100    0.98570    1.000
    C45      C        0.45510    0.25015    0.95979    1.000
    C46      C        0.40670    0.43043    0.90950    1.000
    C47      C        0.35700    0.30100    0.00964    1.000
    C48      C        0.58650    0.42396    0.77650    1.000
    H25      H        0.26700    0.07700    0.47100    1.000
    H26      H        0.38700    0.01390    0.61100    1.000
    H27      H        0.30400    0.22400    0.44070    1.000
    H28      H        0.59350    0.24320    0.65350    1.000
    O25      O        0.57778    0.38814    0.55197    1.000
    O26      O        0.40947    0.37955    0.44283    1.000
    O27      O        0.53529    0.00602    0.76559    1.000
    O28      O        0.70195    0.10967    0.74799    1.000
    C49      C        0.52920    0.20965    0.61663    1.000
    C50      C        0.50540    0.11982    0.64248    1.000
    C51      C        0.48290    0.34667    0.50999    1.000
    C52      C        0.33400    0.10900    0.51430    1.000
    C53      C        0.45510    0.24985    0.54021    1.000
    C54      C        0.40670    0.06957    0.59050    1.000
    C55      C        0.35700    0.19900    0.49036    1.000
    C56      C        0.58650    0.07604    0.72350    1.000
    H29      H        0.23300    0.92300    0.47100    1.000
    H30      H        0.11300    0.98610    0.61100    1.000
    H31      H        0.19600    0.77600    0.44070    1.000
    H32      H        0.90650    0.75680    0.65350    1.000
    O29      O        0.92222    0.61186    0.55197    1.000
    O30      O        0.09053    0.62045    0.44283    1.000
    O31      O        0.96471    0.99398    0.76559    1.000
    O32      O        0.79805    0.89033    0.74799    1.000
    C57      C        0.97080    0.79035    0.61663    1.000
    C58      C        0.99460    0.88018    0.64248    1.000
    C59      C        0.01710    0.65333    0.50999    1.000
    C60      C        0.16600    0.89100    0.51430    1.000
    C61      C        0.04490    0.75015    0.54021    1.000
    C62      C        0.09330    0.93043    0.59050    1.000
    C63      C        0.14300    0.80100    0.49036    1.000
    C64      C        0.91350    0.92396    0.72350    1.000
    La1      La       0.25000    0.00000    0.10581    1.000
    La2      La       0.25000    0.50000    0.39419    1.000
    La3      La       0.75000    0.00000    0.89419    1.000
    La4      La       0.75000    0.50000    0.60581    1.000
