# CIF file generated by openbabel 3.1.0, see https://openbabel.org
data_I
_chemical_name_common 'image0'
_cell_length_a 15.653
_cell_length_b 13.533
_cell_length_c 13.615
_cell_angle_alpha 90
_cell_angle_beta 103.918
_cell_angle_gamma 90
_space_group_name_H-M_alt 'P 1'
_space_group_name_Hall 'P 1'
loop_
    _symmetry_equiv_pos_as_xyz
    x,y,z
loop_
    _atom_site_label
    _atom_site_type_symbol
    _atom_site_fract_x
    _atom_site_fract_y
    _atom_site_fract_z
    _atom_site_occupancy
    Cu1      Cu       0.57263    0.05758    0.52446    1.000
    O1       O        0.51110    0.14520    0.41640    1.000
    O2       O        0.39090    0.04880    0.37670    1.000
    O3       O        0.39810    0.46970    0.07790    1.000
    O4       O        0.51730    0.37260    0.11850    1.000
    N1       N        0.70540    0.38560    0.06300    1.000
    N2       N        0.16110    0.29280    0.18780    1.000
    C1       C        0.38790    0.19990    0.29320    1.000
    C2       C        0.43590    0.26320    0.24590    1.000
    H1       H        0.49830    0.25810    0.26030    1.000
    C3       C        0.39260    0.33300    0.17840    1.000
    C4       C        0.30180    0.34110    0.15920    1.000
    H2       H        0.27160    0.38880    0.11220    1.000
    C5       C        0.25560    0.28010    0.20830    1.000
    C6       C        0.29630    0.20750    0.27460    1.000
    H3       H        0.26330    0.16450    0.30650    1.000
    C7       C        0.12940    0.38520    0.18400    1.000
    H4       H        0.16870    0.43970    0.19670    1.000
    C8       C        0.04170    0.40050    0.16200    1.000
    H5       H        0.02060    0.46640    0.16090    1.000
    C9       C        0.98230    0.32510    0.14130    1.000
    C10      C        0.01760    0.22990    0.14690    1.000
    H6       H        0.97920    0.17450    0.13580    1.000
    C11      C        0.10600    0.21530    0.16800    1.000
    H7       H        0.12890    0.15020    0.16870    1.000
    C12      C        0.88620    0.34360    0.11390    1.000
    C13      C        0.85580    0.43970    0.09060    1.000
    H8       H        0.89600    0.49240    0.09100    1.000
    C14      C        0.76730    0.45650    0.06720    1.000
    H9       H        0.74770    0.52250    0.05290    1.000
    C15      C        0.73640    0.29490    0.08280    1.000
    H10      H        0.69520    0.24280    0.07940    1.000
    C16      C        0.82490    0.27110    0.10810    1.000
    H11      H        0.84280    0.20430    0.12150    1.000
    C17      C        0.43390    0.12620    0.36870    1.000
    C18      C        0.44010    0.39700    0.12070    1.000
    Cu2      Cu       0.42737    0.55758    0.97554    1.000
    O5       O        0.48890    0.64520    0.08360    1.000
    O6       O        0.60910    0.54880    0.12330    1.000
    O7       O        0.60190    0.96970    0.42210    1.000
    O8       O        0.48270    0.87260    0.38150    1.000
    N3       N        0.29460    0.88560    0.43700    1.000
    N4       N        0.83890    0.79280    0.31220    1.000
    C19      C        0.61210    0.69990    0.20680    1.000
    C20      C        0.56410    0.76320    0.25410    1.000
    H12      H        0.50170    0.75810    0.23970    1.000
    C21      C        0.60740    0.83300    0.32160    1.000
    C22      C        0.69820    0.84110    0.34080    1.000
    H13      H        0.72840    0.88880    0.38780    1.000
    C23      C        0.74440    0.78010    0.29170    1.000
    C24      C        0.70370    0.70750    0.22540    1.000
    H14      H        0.73670    0.66450    0.19350    1.000
    C25      C        0.87060    0.88520    0.31600    1.000
    H15      H        0.83130    0.93970    0.30330    1.000
    C26      C        0.95830    0.90050    0.33800    1.000
    H16      H        0.97940    0.96640    0.33910    1.000
    C27      C        0.01770    0.82510    0.35870    1.000
    C28      C        0.98240    0.72990    0.35310    1.000
    H17      H        0.02080    0.67450    0.36420    1.000
    C29      C        0.89400    0.71530    0.33200    1.000
    H18      H        0.87110    0.65020    0.33130    1.000
    C30      C        0.11380    0.84360    0.38610    1.000
    C31      C        0.14420    0.93970    0.40940    1.000
    H19      H        0.10400    0.99240    0.40900    1.000
    C32      C        0.23270    0.95650    0.43280    1.000
    H20      H        0.25230    0.02250    0.44710    1.000
    C33      C        0.26360    0.79490    0.41720    1.000
    H21      H        0.30480    0.74280    0.42060    1.000
    C34      C        0.17510    0.77110    0.39190    1.000
    H22      H        0.15720    0.70430    0.37850    1.000
    C35      C        0.56610    0.62620    0.13130    1.000
    C36      C        0.55990    0.89700    0.37930    1.000
    Cu3      Cu       0.42737    0.94242    0.47554    1.000
    O9       O        0.48890    0.85480    0.58360    1.000
    O10      O        0.60910    0.95120    0.62330    1.000
    O11      O        0.60190    0.53030    0.92210    1.000
    O12      O        0.48270    0.62740    0.88150    1.000
    N5       N        0.29460    0.61440    0.93700    1.000
    N6       N        0.83890    0.70720    0.81220    1.000
    C37      C        0.61210    0.80010    0.70680    1.000
    C38      C        0.56410    0.73680    0.75410    1.000
    H23      H        0.50170    0.74190    0.73970    1.000
    C39      C        0.60740    0.66700    0.82160    1.000
    C40      C        0.69820    0.65890    0.84080    1.000
    H24      H        0.72840    0.61120    0.88780    1.000
    C41      C        0.74440    0.71990    0.79170    1.000
    C42      C        0.70370    0.79250    0.72540    1.000
    H25      H        0.73670    0.83550    0.69350    1.000
    C43      C        0.87060    0.61480    0.81600    1.000
    H26      H        0.83130    0.56030    0.80330    1.000
    C44      C        0.95830    0.59950    0.83800    1.000
    H27      H        0.97940    0.53360    0.83910    1.000
    C45      C        0.01770    0.67490    0.85870    1.000
    C46      C        0.98240    0.77010    0.85310    1.000
    H28      H        0.02080    0.82550    0.86420    1.000
    C47      C        0.89400    0.78470    0.83200    1.000
    H29      H        0.87110    0.84980    0.83130    1.000
    C48      C        0.11380    0.65640    0.88610    1.000
    C49      C        0.14420    0.56030    0.90940    1.000
    H30      H        0.10400    0.50760    0.90900    1.000
    C50      C        0.23270    0.54350    0.93280    1.000
    H31      H        0.25230    0.47750    0.94710    1.000
    C51      C        0.26360    0.70510    0.91720    1.000
    H32      H        0.30480    0.75720    0.92060    1.000
    C52      C        0.17510    0.72890    0.89190    1.000
    H33      H        0.15720    0.79570    0.87850    1.000
    C53      C        0.56610    0.87380    0.63130    1.000
    C54      C        0.55990    0.60300    0.87930    1.000
    Cu4      Cu       0.57263    0.44242    0.02446    1.000
    O13      O        0.51110    0.35480    0.91640    1.000
    O14      O        0.39090    0.45120    0.87670    1.000
    O15      O        0.39810    0.03030    0.57790    1.000
    O16      O        0.51730    0.12740    0.61850    1.000
    N7       N        0.70540    0.11440    0.56300    1.000
    N8       N        0.16110    0.20720    0.68780    1.000
    C55      C        0.38790    0.30010    0.79320    1.000
    C56      C        0.43590    0.23680    0.74590    1.000
    H34      H        0.49830    0.24190    0.76030    1.000
    C57      C        0.39260    0.16700    0.67840    1.000
    C58      C        0.30180    0.15890    0.65920    1.000
    H35      H        0.27160    0.11120    0.61220    1.000
    C59      C        0.25560    0.21990    0.70830    1.000
    C60      C        0.29630    0.29250    0.77460    1.000
    H36      H        0.26330    0.33550    0.80650    1.000
    C61      C        0.12940    0.11480    0.68400    1.000
    H37      H        0.16870    0.06030    0.69670    1.000
    C62      C        0.04170    0.09950    0.66200    1.000
    H38      H        0.02060    0.03360    0.66090    1.000
    C63      C        0.98230    0.17490    0.64130    1.000
    C64      C        0.01760    0.27010    0.64690    1.000
    H39      H        0.97920    0.32550    0.63580    1.000
    C65      C        0.10600    0.28470    0.66800    1.000
    H40      H        0.12890    0.34980    0.66870    1.000
    C66      C        0.88620    0.15640    0.61390    1.000
    C67      C        0.85580    0.06030    0.59060    1.000
    H41      H        0.89600    0.00760    0.59100    1.000
    C68      C        0.76730    0.04350    0.56720    1.000
    H42      H        0.74770    0.97750    0.55290    1.000
    C69      C        0.73640    0.20510    0.58280    1.000
    H43      H        0.69520    0.25720    0.57940    1.000
    C70      C        0.82490    0.22890    0.60810    1.000
    H44      H        0.84280    0.29570    0.62150    1.000
    C71      C        0.43390    0.37380    0.86870    1.000
    C72      C        0.44010    0.10300    0.62070    1.000
