# CIF file generated by openbabel 3.1.0, see https://openbabel.org
data_I
_chemical_name_common 'image0'
_cell_length_a 39.2006
_cell_length_b 39.2006
_cell_length_c 39.2006
_cell_angle_alpha 90
_cell_angle_beta 90
_cell_angle_gamma 90
_space_group_name_H-M_alt 'P 1'
_space_group_name_Hall 'P 1'
loop_
    _symmetry_equiv_pos_as_xyz
    x,y,z
loop_
    _atom_site_label
    _atom_site_type_symbol
    _atom_site_fract_x
    _atom_site_fract_y
    _atom_site_fract_z
    _atom_site_occupancy
    S1       S        0.62990    0.60091    0.70936    1.000
    O1       O        0.65596    0.54092    0.74589    1.000
    O2       O        0.70520    0.53515    0.71830    1.000
    C1       C        0.67652    0.54892    0.72254    1.000
    C2       C        0.66652    0.57756    0.69992    1.000
    C3       C        0.68545    0.58877    0.67043    1.000
    H1       H        0.70590    0.57910    0.66180    1.000
    C4       C        0.66670    0.61814    0.65646    1.000
    C5       C        0.63770    0.62744    0.67547    1.000
    S2       S        0.62990    0.10091    0.20936    1.000
    O3       O        0.65596    0.04092    0.24589    1.000
    O4       O        0.70520    0.03515    0.21830    1.000
    C6       C        0.67652    0.04892    0.22254    1.000
    C7       C        0.66652    0.07756    0.19992    1.000
    C8       C        0.68545    0.08877    0.17043    1.000
    H2       H        0.70590    0.07910    0.16180    1.000
    C9       C        0.66670    0.11814    0.15646    1.000
    C10      C        0.63770    0.12744    0.17547    1.000
    S3       S        0.12990    0.60091    0.20936    1.000
    O5       O        0.15596    0.54092    0.24589    1.000
    O6       O        0.20520    0.53515    0.21830    1.000
    C11      C        0.17652    0.54892    0.22254    1.000
    C12      C        0.16652    0.57756    0.19992    1.000
    C13      C        0.18545    0.58877    0.17043    1.000
    H3       H        0.20590    0.57910    0.16180    1.000
    C14      C        0.16670    0.61814    0.15646    1.000
    C15      C        0.13770    0.62744    0.17547    1.000
    S4       S        0.12990    0.10091    0.70936    1.000
    O7       O        0.15596    0.04092    0.74589    1.000
    O8       O        0.20520    0.03515    0.71830    1.000
    C16      C        0.17652    0.04892    0.72254    1.000
    C17      C        0.16652    0.07756    0.69992    1.000
    C18      C        0.18545    0.08877    0.67043    1.000
    H4       H        0.20590    0.07910    0.66180    1.000
    C19      C        0.16670    0.11814    0.65646    1.000
    C20      C        0.13770    0.12744    0.67547    1.000
    S5       S        0.37010    0.39909    0.70936    1.000
    O9       O        0.34404    0.45908    0.74589    1.000
    O10      O        0.29480    0.46485    0.71830    1.000
    C21      C        0.32348    0.45108    0.72254    1.000
    C22      C        0.33348    0.42244    0.69992    1.000
    C23      C        0.31455    0.41123    0.67043    1.000
    H5       H        0.29410    0.42090    0.66180    1.000
    C24      C        0.33330    0.38186    0.65646    1.000
    C25      C        0.36230    0.37256    0.67547    1.000
    S6       S        0.37010    0.89909    0.20936    1.000
    O11      O        0.34404    0.95908    0.24589    1.000
    O12      O        0.29480    0.96485    0.21830    1.000
    C26      C        0.32348    0.95108    0.22254    1.000
    C27      C        0.33348    0.92244    0.19992    1.000
    C28      C        0.31455    0.91123    0.17043    1.000
    H6       H        0.29410    0.92090    0.16180    1.000
    C29      C        0.33330    0.88186    0.15646    1.000
    C30      C        0.36230    0.87256    0.17547    1.000
    S7       S        0.87010    0.39909    0.20936    1.000
    O13      O        0.84404    0.45908    0.24589    1.000
    O14      O        0.79480    0.46485    0.21830    1.000
    C31      C        0.82348    0.45108    0.22254    1.000
    C32      C        0.83348    0.42244    0.19992    1.000
    C33      C        0.81455    0.41123    0.17043    1.000
    H7       H        0.79410    0.42090    0.16180    1.000
    C34      C        0.83330    0.38186    0.15646    1.000
    C35      C        0.86230    0.37256    0.17547    1.000
    S8       S        0.87010    0.89909    0.70936    1.000
    O15      O        0.84404    0.95908    0.74589    1.000
    O16      O        0.79480    0.96485    0.71830    1.000
    C36      C        0.82348    0.95108    0.72254    1.000
    C37      C        0.83348    0.92244    0.69992    1.000
    C38      C        0.81455    0.91123    0.67043    1.000
    H8       H        0.79410    0.92090    0.66180    1.000
    C39      C        0.83330    0.88186    0.65646    1.000
    C40      C        0.86230    0.87256    0.67547    1.000
    S9       S        0.37010    0.60091    0.29064    1.000
    O17      O        0.34404    0.54092    0.25411    1.000
    O18      O        0.29480    0.53515    0.28170    1.000
    C41      C        0.32348    0.54892    0.27746    1.000
    C42      C        0.33348    0.57756    0.30008    1.000
    C43      C        0.31455    0.58877    0.32957    1.000
    H9       H        0.29410    0.57910    0.33820    1.000
    C44      C        0.33330    0.61814    0.34354    1.000
    C45      C        0.36230    0.62744    0.32453    1.000
    S10      S        0.37010    0.10091    0.79064    1.000
    O19      O        0.34404    0.04092    0.75411    1.000
    O20      O        0.29480    0.03515    0.78170    1.000
    C46      C        0.32348    0.04892    0.77746    1.000
    C47      C        0.33348    0.07756    0.80008    1.000
    C48      C        0.31455    0.08877    0.82957    1.000
    H10      H        0.29410    0.07910    0.83820    1.000
    C49      C        0.33330    0.11814    0.84354    1.000
    C50      C        0.36230    0.12744    0.82453    1.000
    S11      S        0.87010    0.60091    0.79064    1.000
    O21      O        0.84404    0.54092    0.75411    1.000
    O22      O        0.79480    0.53515    0.78170    1.000
    C51      C        0.82348    0.54892    0.77746    1.000
    C52      C        0.83348    0.57756    0.80008    1.000
    C53      C        0.81455    0.58877    0.82957    1.000
    H11      H        0.79410    0.57910    0.83820    1.000
    C54      C        0.83330    0.61814    0.84354    1.000
    C55      C        0.86230    0.62744    0.82453    1.000
    S12      S        0.87010    0.10091    0.29064    1.000
    O23      O        0.84404    0.04092    0.25411    1.000
    O24      O        0.79480    0.03515    0.28170    1.000
    C56      C        0.82348    0.04892    0.27746    1.000
    C57      C        0.83348    0.07756    0.30008    1.000
    C58      C        0.81455    0.08877    0.32957    1.000
    H12      H        0.79410    0.07910    0.33820    1.000
    C59      C        0.83330    0.11814    0.34354    1.000
    C60      C        0.86230    0.12744    0.32453    1.000
    S13      S        0.62990    0.39909    0.29064    1.000
    O25      O        0.65596    0.45908    0.25411    1.000
    O26      O        0.70520    0.46485    0.28170    1.000
    C61      C        0.67652    0.45108    0.27746    1.000
    C62      C        0.66652    0.42244    0.30008    1.000
    C63      C        0.68545    0.41123    0.32957    1.000
    H13      H        0.70590    0.42090    0.33820    1.000
    C64      C        0.66670    0.38186    0.34354    1.000
    C65      C        0.63770    0.37256    0.32453    1.000
    S14      S        0.62990    0.89909    0.79064    1.000
    O27      O        0.65596    0.95908    0.75411    1.000
    O28      O        0.70520    0.96485    0.78170    1.000
    C66      C        0.67652    0.95108    0.77746    1.000
    C67      C        0.66652    0.92244    0.80008    1.000
    C68      C        0.68545    0.91123    0.82957    1.000
    H14      H        0.70590    0.92090    0.83820    1.000
    C69      C        0.66670    0.88186    0.84354    1.000
    C70      C        0.63770    0.87256    0.82453    1.000
    S15      S        0.12990    0.39909    0.79064    1.000
    O29      O        0.15596    0.45908    0.75411    1.000
    O30      O        0.20520    0.46485    0.78170    1.000
    C71      C        0.17652    0.45108    0.77746    1.000
    C72      C        0.16652    0.42244    0.80008    1.000
    C73      C        0.18545    0.41123    0.82957    1.000
    H15      H        0.20590    0.42090    0.83820    1.000
    C74      C        0.16670    0.38186    0.84354    1.000
    C75      C        0.13770    0.37256    0.82453    1.000
    S16      S        0.12990    0.89909    0.29064    1.000
    O31      O        0.15596    0.95908    0.25411    1.000
    O32      O        0.20520    0.96485    0.28170    1.000
    C76      C        0.17652    0.95108    0.27746    1.000
    C77      C        0.16652    0.92244    0.30008    1.000
    C78      C        0.18545    0.91123    0.32957    1.000
    H16      H        0.20590    0.92090    0.33820    1.000
    C79      C        0.16670    0.88186    0.34354    1.000
    C80      C        0.13770    0.87256    0.32453    1.000
    S17      S        0.70936    0.62990    0.60091    1.000
    O33      O        0.74589    0.65596    0.54092    1.000
    O34      O        0.71830    0.70520    0.53515    1.000
    C81      C        0.72254    0.67652    0.54892    1.000
    C82      C        0.69992    0.66652    0.57756    1.000
    C83      C        0.67043    0.68545    0.58877    1.000
    H17      H        0.66180    0.70590    0.57910    1.000
    C84      C        0.65646    0.66670    0.61814    1.000
    C85      C        0.67547    0.63770    0.62744    1.000
    S18      S        0.70936    0.12990    0.10091    1.000
    O35      O        0.74589    0.15596    0.04092    1.000
    O36      O        0.71830    0.20520    0.03515    1.000
    C86      C        0.72254    0.17652    0.04892    1.000
    C87      C        0.69992    0.16652    0.07756    1.000
    C88      C        0.67043    0.18545    0.08877    1.000
    H18      H        0.66180    0.20590    0.07910    1.000
    C89      C        0.65646    0.16670    0.11814    1.000
    C90      C        0.67547    0.13770    0.12744    1.000
    S19      S        0.20936    0.62990    0.10091    1.000
    O37      O        0.24589    0.65596    0.04092    1.000
    O38      O        0.21830    0.70520    0.03515    1.000
    C91      C        0.22254    0.67652    0.04892    1.000
    C92      C        0.19992    0.66652    0.07756    1.000
    C93      C        0.17043    0.68545    0.08877    1.000
    H19      H        0.16180    0.70590    0.07910    1.000
    C94      C        0.15646    0.66670    0.11814    1.000
    C95      C        0.17547    0.63770    0.12744    1.000
    S20      S        0.20936    0.12990    0.60091    1.000
    O39      O        0.24589    0.15596    0.54092    1.000
    O40      O        0.21830    0.20520    0.53515    1.000
    C96      C        0.22254    0.17652    0.54892    1.000
    C97      C        0.19992    0.16652    0.57756    1.000
    C98      C        0.17043    0.18545    0.58877    1.000
    H20      H        0.16180    0.20590    0.57910    1.000
    C99      C        0.15646    0.16670    0.61814    1.000
    C100     C        0.17547    0.13770    0.62744    1.000
    S21      S        0.70936    0.37010    0.39909    1.000
    O41      O        0.74589    0.34404    0.45908    1.000
    O42      O        0.71830    0.29480    0.46485    1.000
    C101     C        0.72254    0.32348    0.45108    1.000
    C102     C        0.69992    0.33348    0.42244    1.000
    C103     C        0.67043    0.31455    0.41123    1.000
    H21      H        0.66180    0.29410    0.42090    1.000
    C104     C        0.65646    0.33330    0.38186    1.000
    C105     C        0.67547    0.36230    0.37256    1.000
    S22      S        0.70936    0.87010    0.89909    1.000
    O43      O        0.74589    0.84404    0.95908    1.000
    O44      O        0.71830    0.79480    0.96485    1.000
    C106     C        0.72254    0.82348    0.95108    1.000
    C107     C        0.69992    0.83348    0.92244    1.000
    C108     C        0.67043    0.81455    0.91123    1.000
    H22      H        0.66180    0.79410    0.92090    1.000
    C109     C        0.65646    0.83330    0.88186    1.000
    C110     C        0.67547    0.86230    0.87256    1.000
    S23      S        0.20936    0.37010    0.89909    1.000
    O45      O        0.24589    0.34404    0.95908    1.000
    O46      O        0.21830    0.29480    0.96485    1.000
    C111     C        0.22254    0.32348    0.95108    1.000
    C112     C        0.19992    0.33348    0.92244    1.000
    C113     C        0.17043    0.31455    0.91123    1.000
    H23      H        0.16180    0.29410    0.92090    1.000
    C114     C        0.15646    0.33330    0.88186    1.000
    C115     C        0.17547    0.36230    0.87256    1.000
    S24      S        0.20936    0.87010    0.39909    1.000
    O47      O        0.24589    0.84404    0.45908    1.000
    O48      O        0.21830    0.79480    0.46485    1.000
    C116     C        0.22254    0.82348    0.45108    1.000
    C117     C        0.19992    0.83348    0.42244    1.000
    C118     C        0.17043    0.81455    0.41123    1.000
    H24      H        0.16180    0.79410    0.42090    1.000
    C119     C        0.15646    0.83330    0.38186    1.000
    C120     C        0.17547    0.86230    0.37256    1.000
    S25      S        0.29064    0.37010    0.60091    1.000
    O49      O        0.25411    0.34404    0.54092    1.000
    O50      O        0.28170    0.29480    0.53515    1.000
    C121     C        0.27746    0.32348    0.54892    1.000
    C122     C        0.30008    0.33348    0.57756    1.000
    C123     C        0.32957    0.31455    0.58877    1.000
    H25      H        0.33820    0.29410    0.57910    1.000
    C124     C        0.34354    0.33330    0.61814    1.000
    C125     C        0.32453    0.36230    0.62744    1.000
    S26      S        0.29064    0.87010    0.10091    1.000
    O51      O        0.25411    0.84404    0.04092    1.000
    O52      O        0.28170    0.79480    0.03515    1.000
    C126     C        0.27746    0.82348    0.04892    1.000
    C127     C        0.30008    0.83348    0.07756    1.000
    C128     C        0.32957    0.81455    0.08877    1.000
    H26      H        0.33820    0.79410    0.07910    1.000
    C129     C        0.34354    0.83330    0.11814    1.000
    C130     C        0.32453    0.86230    0.12744    1.000
    S27      S        0.79064    0.37010    0.10091    1.000
    O53      O        0.75411    0.34404    0.04092    1.000
    O54      O        0.78170    0.29480    0.03515    1.000
    C131     C        0.77746    0.32348    0.04892    1.000
    C132     C        0.80008    0.33348    0.07756    1.000
    C133     C        0.82957    0.31455    0.08877    1.000
    H27      H        0.83820    0.29410    0.07910    1.000
    C134     C        0.84354    0.33330    0.11814    1.000
    C135     C        0.82453    0.36230    0.12744    1.000
    S28      S        0.79064    0.87010    0.60091    1.000
    O55      O        0.75411    0.84404    0.54092    1.000
    O56      O        0.78170    0.79480    0.53515    1.000
    C136     C        0.77746    0.82348    0.54892    1.000
    C137     C        0.80008    0.83348    0.57756    1.000
    C138     C        0.82957    0.81455    0.58877    1.000
    H28      H        0.83820    0.79410    0.57910    1.000
    C139     C        0.84354    0.83330    0.61814    1.000
    C140     C        0.82453    0.86230    0.62744    1.000
    S29      S        0.29064    0.62990    0.39909    1.000
    O57      O        0.25411    0.65596    0.45908    1.000
    O58      O        0.28170    0.70520    0.46485    1.000
    C141     C        0.27746    0.67652    0.45108    1.000
    C142     C        0.30008    0.66652    0.42244    1.000
    C143     C        0.32957    0.68545    0.41123    1.000
    H29      H        0.33820    0.70590    0.42090    1.000
    C144     C        0.34354    0.66670    0.38186    1.000
    C145     C        0.32453    0.63770    0.37256    1.000
    S30      S        0.29064    0.12990    0.89909    1.000
    O59      O        0.25411    0.15596    0.95908    1.000
    O60      O        0.28170    0.20520    0.96485    1.000
    C146     C        0.27746    0.17652    0.95108    1.000
    C147     C        0.30008    0.16652    0.92244    1.000
    C148     C        0.32957    0.18545    0.91123    1.000
    H30      H        0.33820    0.20590    0.92090    1.000
    C149     C        0.34354    0.16670    0.88186    1.000
    C150     C        0.32453    0.13770    0.87256    1.000
    S31      S        0.79064    0.62990    0.89909    1.000
    O61      O        0.75411    0.65596    0.95908    1.000
    O62      O        0.78170    0.70520    0.96485    1.000
    C151     C        0.77746    0.67652    0.95108    1.000
    C152     C        0.80008    0.66652    0.92244    1.000
    C153     C        0.82957    0.68545    0.91123    1.000
    H31      H        0.83820    0.70590    0.92090    1.000
    C154     C        0.84354    0.66670    0.88186    1.000
    C155     C        0.82453    0.63770    0.87256    1.000
    S32      S        0.79064    0.12990    0.39909    1.000
    O63      O        0.75411    0.15596    0.45908    1.000
    O64      O        0.78170    0.20520    0.46485    1.000
    C156     C        0.77746    0.17652    0.45108    1.000
    C157     C        0.80008    0.16652    0.42244    1.000
    C158     C        0.82957    0.18545    0.41123    1.000
    H32      H        0.83820    0.20590    0.42090    1.000
    C159     C        0.84354    0.16670    0.38186    1.000
    C160     C        0.82453    0.13770    0.37256    1.000
    S33      S        0.60091    0.70936    0.62990    1.000
    O65      O        0.54092    0.74589    0.65596    1.000
    O66      O        0.53515    0.71830    0.70520    1.000
    C161     C        0.54892    0.72254    0.67652    1.000
    C162     C        0.57756    0.69992    0.66652    1.000
    C163     C        0.58877    0.67043    0.68545    1.000
    H33      H        0.57910    0.66180    0.70590    1.000
    C164     C        0.61814    0.65646    0.66670    1.000
    C165     C        0.62744    0.67547    0.63770    1.000
    S34      S        0.60091    0.20936    0.12990    1.000
    O67      O        0.54092    0.24589    0.15596    1.000
    O68      O        0.53515    0.21830    0.20520    1.000
    C166     C        0.54892    0.22254    0.17652    1.000
    C167     C        0.57756    0.19992    0.16652    1.000
    C168     C        0.58877    0.17043    0.18545    1.000
    H34      H        0.57910    0.16180    0.20590    1.000
    C169     C        0.61814    0.15646    0.16670    1.000
    C170     C        0.62744    0.17547    0.13770    1.000
    S35      S        0.10091    0.70936    0.12990    1.000
    O69      O        0.04092    0.74589    0.15596    1.000
    O70      O        0.03515    0.71830    0.20520    1.000
    C171     C        0.04892    0.72254    0.17652    1.000
    C172     C        0.07756    0.69992    0.16652    1.000
    C173     C        0.08877    0.67043    0.18545    1.000
    H35      H        0.07910    0.66180    0.20590    1.000
    C174     C        0.11814    0.65646    0.16670    1.000
    C175     C        0.12744    0.67547    0.13770    1.000
    S36      S        0.10091    0.20936    0.62990    1.000
    O71      O        0.04092    0.24589    0.65596    1.000
    O72      O        0.03515    0.21830    0.70520    1.000
    C176     C        0.04892    0.22254    0.67652    1.000
    C177     C        0.07756    0.19992    0.66652    1.000
    C178     C        0.08877    0.17043    0.68545    1.000
    H36      H        0.07910    0.16180    0.70590    1.000
    C179     C        0.11814    0.15646    0.66670    1.000
    C180     C        0.12744    0.17547    0.63770    1.000
    S37      S        0.39909    0.70936    0.37010    1.000
    O73      O        0.45908    0.74589    0.34404    1.000
    O74      O        0.46485    0.71830    0.29480    1.000
    C181     C        0.45108    0.72254    0.32348    1.000
    C182     C        0.42244    0.69992    0.33348    1.000
    C183     C        0.41123    0.67043    0.31455    1.000
    H37      H        0.42090    0.66180    0.29410    1.000
    C184     C        0.38186    0.65646    0.33330    1.000
    C185     C        0.37256    0.67547    0.36230    1.000
    S38      S        0.39909    0.20936    0.87010    1.000
    O75      O        0.45908    0.24589    0.84404    1.000
    O76      O        0.46485    0.21830    0.79480    1.000
    C186     C        0.45108    0.22254    0.82348    1.000
    C187     C        0.42244    0.19992    0.83348    1.000
    C188     C        0.41123    0.17043    0.81455    1.000
    H38      H        0.42090    0.16180    0.79410    1.000
    C189     C        0.38186    0.15646    0.83330    1.000
    C190     C        0.37256    0.17547    0.86230    1.000
    S39      S        0.89909    0.70936    0.87010    1.000
    O77      O        0.95908    0.74589    0.84404    1.000
    O78      O        0.96485    0.71830    0.79480    1.000
    C191     C        0.95108    0.72254    0.82348    1.000
    C192     C        0.92244    0.69992    0.83348    1.000
    C193     C        0.91123    0.67043    0.81455    1.000
    H39      H        0.92090    0.66180    0.79410    1.000
    C194     C        0.88186    0.65646    0.83330    1.000
    C195     C        0.87256    0.67547    0.86230    1.000
    S40      S        0.89909    0.20936    0.37010    1.000
    O79      O        0.95908    0.24589    0.34404    1.000
    O80      O        0.96485    0.21830    0.29480    1.000
    C196     C        0.95108    0.22254    0.32348    1.000
    C197     C        0.92244    0.19992    0.33348    1.000
    C198     C        0.91123    0.17043    0.31455    1.000
    H40      H        0.92090    0.16180    0.29410    1.000
    C199     C        0.88186    0.15646    0.33330    1.000
    C200     C        0.87256    0.17547    0.36230    1.000
    S41      S        0.60091    0.29064    0.37010    1.000
    O81      O        0.54092    0.25411    0.34404    1.000
    O82      O        0.53515    0.28170    0.29480    1.000
    C201     C        0.54892    0.27746    0.32348    1.000
    C202     C        0.57756    0.30008    0.33348    1.000
    C203     C        0.58877    0.32957    0.31455    1.000
    H41      H        0.57910    0.33820    0.29410    1.000
    C204     C        0.61814    0.34354    0.33330    1.000
    C205     C        0.62744    0.32453    0.36230    1.000
    S42      S        0.60091    0.79064    0.87010    1.000
    O83      O        0.54092    0.75411    0.84404    1.000
    O84      O        0.53515    0.78170    0.79480    1.000
    C206     C        0.54892    0.77746    0.82348    1.000
    C207     C        0.57756    0.80008    0.83348    1.000
    C208     C        0.58877    0.82957    0.81455    1.000
    H42      H        0.57910    0.83820    0.79410    1.000
    C209     C        0.61814    0.84354    0.83330    1.000
    C210     C        0.62744    0.82453    0.86230    1.000
    S43      S        0.10091    0.29064    0.87010    1.000
    O85      O        0.04092    0.25411    0.84404    1.000
    O86      O        0.03515    0.28170    0.79480    1.000
    C211     C        0.04892    0.27746    0.82348    1.000
    C212     C        0.07756    0.30008    0.83348    1.000
    C213     C        0.08877    0.32957    0.81455    1.000
    H43      H        0.07910    0.33820    0.79410    1.000
    C214     C        0.11814    0.34354    0.83330    1.000
    C215     C        0.12744    0.32453    0.86230    1.000
    S44      S        0.10091    0.79064    0.37010    1.000
    O87      O        0.04092    0.75411    0.34404    1.000
    O88      O        0.03515    0.78170    0.29480    1.000
    C216     C        0.04892    0.77746    0.32348    1.000
    C217     C        0.07756    0.80008    0.33348    1.000
    C218     C        0.08877    0.82957    0.31455    1.000
    H44      H        0.07910    0.83820    0.29410    1.000
    C219     C        0.11814    0.84354    0.33330    1.000
    C220     C        0.12744    0.82453    0.36230    1.000
    S45      S        0.39909    0.29064    0.62990    1.000
    O89      O        0.45908    0.25411    0.65596    1.000
    O90      O        0.46485    0.28170    0.70520    1.000
    C221     C        0.45108    0.27746    0.67652    1.000
    C222     C        0.42244    0.30008    0.66652    1.000
    C223     C        0.41123    0.32957    0.68545    1.000
    H45      H        0.42090    0.33820    0.70590    1.000
    C224     C        0.38186    0.34354    0.66670    1.000
    C225     C        0.37256    0.32453    0.63770    1.000
    S46      S        0.39909    0.79064    0.12990    1.000
    O91      O        0.45908    0.75411    0.15596    1.000
    O92      O        0.46485    0.78170    0.20520    1.000
    C226     C        0.45108    0.77746    0.17652    1.000
    C227     C        0.42244    0.80008    0.16652    1.000
    C228     C        0.41123    0.82957    0.18545    1.000
    H46      H        0.42090    0.83820    0.20590    1.000
    C229     C        0.38186    0.84354    0.16670    1.000
    C230     C        0.37256    0.82453    0.13770    1.000
    S47      S        0.89909    0.29064    0.12990    1.000
    O93      O        0.95908    0.25411    0.15596    1.000
    O94      O        0.96485    0.28170    0.20520    1.000
    C231     C        0.95108    0.27746    0.17652    1.000
    C232     C        0.92244    0.30008    0.16652    1.000
    C233     C        0.91123    0.32957    0.18545    1.000
    H47      H        0.92090    0.33820    0.20590    1.000
    C234     C        0.88186    0.34354    0.16670    1.000
    C235     C        0.87256    0.32453    0.13770    1.000
    S48      S        0.89909    0.79064    0.62990    1.000
    O95      O        0.95908    0.75411    0.65596    1.000
    O96      O        0.96485    0.78170    0.70520    1.000
    C236     C        0.95108    0.77746    0.67652    1.000
    C237     C        0.92244    0.80008    0.66652    1.000
    C238     C        0.91123    0.82957    0.68545    1.000
    H48      H        0.92090    0.83820    0.70590    1.000
    C239     C        0.88186    0.84354    0.66670    1.000
    C240     C        0.87256    0.82453    0.63770    1.000
    S49      S        0.10091    0.12990    0.79064    1.000
    O97      O        0.04092    0.15596    0.75411    1.000
    O98      O        0.03515    0.20520    0.78170    1.000
    C241     C        0.04892    0.17652    0.77746    1.000
    C242     C        0.07756    0.16652    0.80008    1.000
    C243     C        0.08877    0.18545    0.82957    1.000
    H49      H        0.07910    0.20590    0.83820    1.000
    C244     C        0.11814    0.16670    0.84354    1.000
    C245     C        0.12744    0.13770    0.82453    1.000
    S50      S        0.10091    0.62990    0.29064    1.000
    O99      O        0.04092    0.65596    0.25411    1.000
    O100     O        0.03515    0.70520    0.28170    1.000
    C246     C        0.04892    0.67652    0.27746    1.000
    C247     C        0.07756    0.66652    0.30008    1.000
    C248     C        0.08877    0.68545    0.32957    1.000
    H50      H        0.07910    0.70590    0.33820    1.000
    C249     C        0.11814    0.66670    0.34354    1.000
    C250     C        0.12744    0.63770    0.32453    1.000
    S51      S        0.60091    0.12990    0.29064    1.000
    O101     O        0.54092    0.15596    0.25411    1.000
    O102     O        0.53515    0.20520    0.28170    1.000
    C251     C        0.54892    0.17652    0.27746    1.000
    C252     C        0.57756    0.16652    0.30008    1.000
    C253     C        0.58877    0.18545    0.32957    1.000
    H51      H        0.57910    0.20590    0.33820    1.000
    C254     C        0.61814    0.16670    0.34354    1.000
    C255     C        0.62744    0.13770    0.32453    1.000
    S52      S        0.60091    0.62990    0.79064    1.000
    O103     O        0.54092    0.65596    0.75411    1.000
    O104     O        0.53515    0.70520    0.78170    1.000
    C256     C        0.54892    0.67652    0.77746    1.000
    C257     C        0.57756    0.66652    0.80008    1.000
    C258     C        0.58877    0.68545    0.82957    1.000
    H52      H        0.57910    0.70590    0.83820    1.000
    C259     C        0.61814    0.66670    0.84354    1.000
    C260     C        0.62744    0.63770    0.82453    1.000
    S53      S        0.89909    0.87010    0.79064    1.000
    O105     O        0.95908    0.84404    0.75411    1.000
    O106     O        0.96485    0.79480    0.78170    1.000
    C261     C        0.95108    0.82348    0.77746    1.000
    C262     C        0.92244    0.83348    0.80008    1.000
    C263     C        0.91123    0.81455    0.82957    1.000
    H53      H        0.92090    0.79410    0.83820    1.000
    C264     C        0.88186    0.83330    0.84354    1.000
    C265     C        0.87256    0.86230    0.82453    1.000
    S54      S        0.89909    0.37010    0.29064    1.000
    O107     O        0.95908    0.34404    0.25411    1.000
    O108     O        0.96485    0.29480    0.28170    1.000
    C266     C        0.95108    0.32348    0.27746    1.000
    C267     C        0.92244    0.33348    0.30008    1.000
    C268     C        0.91123    0.31455    0.32957    1.000
    H54      H        0.92090    0.29410    0.33820    1.000
    C269     C        0.88186    0.33330    0.34354    1.000
    C270     C        0.87256    0.36230    0.32453    1.000
    S55      S        0.39909    0.87010    0.29064    1.000
    O109     O        0.45908    0.84404    0.25411    1.000
    O110     O        0.46485    0.79480    0.28170    1.000
    C271     C        0.45108    0.82348    0.27746    1.000
    C272     C        0.42244    0.83348    0.30008    1.000
    C273     C        0.41123    0.81455    0.32957    1.000
    H55      H        0.42090    0.79410    0.33820    1.000
    C274     C        0.38186    0.83330    0.34354    1.000
    C275     C        0.37256    0.86230    0.32453    1.000
    S56      S        0.39909    0.37010    0.79064    1.000
    O111     O        0.45908    0.34404    0.75411    1.000
    O112     O        0.46485    0.29480    0.78170    1.000
    C276     C        0.45108    0.32348    0.77746    1.000
    C277     C        0.42244    0.33348    0.80008    1.000
    C278     C        0.41123    0.31455    0.82957    1.000
    H56      H        0.42090    0.29410    0.83820    1.000
    C279     C        0.38186    0.33330    0.84354    1.000
    C280     C        0.37256    0.36230    0.82453    1.000
    S57      S        0.10091    0.87010    0.20936    1.000
    O113     O        0.04092    0.84404    0.24589    1.000
    O114     O        0.03515    0.79480    0.21830    1.000
    C281     C        0.04892    0.82348    0.22254    1.000
    C282     C        0.07756    0.83348    0.19992    1.000
    C283     C        0.08877    0.81455    0.17043    1.000
    H57      H        0.07910    0.79410    0.16180    1.000
    C284     C        0.11814    0.83330    0.15646    1.000
    C285     C        0.12744    0.86230    0.17547    1.000
    S58      S        0.10091    0.37010    0.70936    1.000
    O115     O        0.04092    0.34404    0.74589    1.000
    O116     O        0.03515    0.29480    0.71830    1.000
    C286     C        0.04892    0.32348    0.72254    1.000
    C287     C        0.07756    0.33348    0.69992    1.000
    C288     C        0.08877    0.31455    0.67043    1.000
    H58      H        0.07910    0.29410    0.66180    1.000
    C289     C        0.11814    0.33330    0.65646    1.000
    C290     C        0.12744    0.36230    0.67547    1.000
    S59      S        0.60091    0.87010    0.70936    1.000
    O117     O        0.54092    0.84404    0.74589    1.000
    O118     O        0.53515    0.79480    0.71830    1.000
    C291     C        0.54892    0.82348    0.72254    1.000
    C292     C        0.57756    0.83348    0.69992    1.000
    C293     C        0.58877    0.81455    0.67043    1.000
    H59      H        0.57910    0.79410    0.66180    1.000
    C294     C        0.61814    0.83330    0.65646    1.000
    C295     C        0.62744    0.86230    0.67547    1.000
    S60      S        0.60091    0.37010    0.20936    1.000
    O119     O        0.54092    0.34404    0.24589    1.000
    O120     O        0.53515    0.29480    0.21830    1.000
    C296     C        0.54892    0.32348    0.22254    1.000
    C297     C        0.57756    0.33348    0.19992    1.000
    C298     C        0.58877    0.31455    0.17043    1.000
    H60      H        0.57910    0.29410    0.16180    1.000
    C299     C        0.61814    0.33330    0.15646    1.000
    C300     C        0.62744    0.36230    0.17547    1.000
    S61      S        0.89909    0.12990    0.20936    1.000
    O121     O        0.95908    0.15596    0.24589    1.000
    O122     O        0.96485    0.20520    0.21830    1.000
    C301     C        0.95108    0.17652    0.22254    1.000
    C302     C        0.92244    0.16652    0.19992    1.000
    C303     C        0.91123    0.18545    0.17043    1.000
    H61      H        0.92090    0.20590    0.16180    1.000
    C304     C        0.88186    0.16670    0.15646    1.000
    C305     C        0.87256    0.13770    0.17547    1.000
    S62      S        0.89909    0.62990    0.70936    1.000
    O123     O        0.95908    0.65596    0.74589    1.000
    O124     O        0.96485    0.70520    0.71830    1.000
    C306     C        0.95108    0.67652    0.72254    1.000
    C307     C        0.92244    0.66652    0.69992    1.000
    C308     C        0.91123    0.68545    0.67043    1.000
    H62      H        0.92090    0.70590    0.66180    1.000
    C309     C        0.88186    0.66670    0.65646    1.000
    C310     C        0.87256    0.63770    0.67547    1.000
    S63      S        0.39909    0.12990    0.70936    1.000
    O125     O        0.45908    0.15596    0.74589    1.000
    O126     O        0.46485    0.20520    0.71830    1.000
    C311     C        0.45108    0.17652    0.72254    1.000
    C312     C        0.42244    0.16652    0.69992    1.000
    C313     C        0.41123    0.18545    0.67043    1.000
    H63      H        0.42090    0.20590    0.66180    1.000
    C314     C        0.38186    0.16670    0.65646    1.000
    C315     C        0.37256    0.13770    0.67547    1.000
    S64      S        0.39909    0.62990    0.20936    1.000
    O127     O        0.45908    0.65596    0.24589    1.000
    O128     O        0.46485    0.70520    0.21830    1.000
    C316     C        0.45108    0.67652    0.22254    1.000
    C317     C        0.42244    0.66652    0.19992    1.000
    C318     C        0.41123    0.68545    0.17043    1.000
    H64      H        0.42090    0.70590    0.16180    1.000
    C319     C        0.38186    0.66670    0.15646    1.000
    C320     C        0.37256    0.63770    0.17547    1.000
    S65      S        0.12990    0.20936    0.89909    1.000
    O129     O        0.15596    0.24589    0.95908    1.000
    O130     O        0.20520    0.21830    0.96485    1.000
    C321     C        0.17652    0.22254    0.95108    1.000
    C322     C        0.16652    0.19992    0.92244    1.000
    C323     C        0.18545    0.17043    0.91123    1.000
    H65      H        0.20590    0.16180    0.92090    1.000
    C324     C        0.16670    0.15646    0.88186    1.000
    C325     C        0.13770    0.17547    0.87256    1.000
    S66      S        0.12990    0.70936    0.39909    1.000
    O131     O        0.15596    0.74589    0.45908    1.000
    O132     O        0.20520    0.71830    0.46485    1.000
    C326     C        0.17652    0.72254    0.45108    1.000
    C327     C        0.16652    0.69992    0.42244    1.000
    C328     C        0.18545    0.67043    0.41123    1.000
    H66      H        0.20590    0.66180    0.42090    1.000
    C329     C        0.16670    0.65646    0.38186    1.000
    C330     C        0.13770    0.67547    0.37256    1.000
    S67      S        0.62990    0.20936    0.39909    1.000
    O133     O        0.65596    0.24589    0.45908    1.000
    O134     O        0.70520    0.21830    0.46485    1.000
    C331     C        0.67652    0.22254    0.45108    1.000
    C332     C        0.66652    0.19992    0.42244    1.000
    C333     C        0.68545    0.17043    0.41123    1.000
    H67      H        0.70590    0.16180    0.42090    1.000
    C334     C        0.66670    0.15646    0.38186    1.000
    C335     C        0.63770    0.17547    0.37256    1.000
    S68      S        0.62990    0.70936    0.89909    1.000
    O135     O        0.65596    0.74589    0.95908    1.000
    O136     O        0.70520    0.71830    0.96485    1.000
    C336     C        0.67652    0.72254    0.95108    1.000
    C337     C        0.66652    0.69992    0.92244    1.000
    C338     C        0.68545    0.67043    0.91123    1.000
    H68      H        0.70590    0.66180    0.92090    1.000
    C339     C        0.66670    0.65646    0.88186    1.000
    C340     C        0.63770    0.67547    0.87256    1.000
    S69      S        0.87010    0.20936    0.10091    1.000
    O137     O        0.84404    0.24589    0.04092    1.000
    O138     O        0.79480    0.21830    0.03515    1.000
    C341     C        0.82348    0.22254    0.04892    1.000
    C342     C        0.83348    0.19992    0.07756    1.000
    C343     C        0.81455    0.17043    0.08877    1.000
    H69      H        0.79410    0.16180    0.07910    1.000
    C344     C        0.83330    0.15646    0.11814    1.000
    C345     C        0.86230    0.17547    0.12744    1.000
    S70      S        0.87010    0.70936    0.60091    1.000
    O139     O        0.84404    0.74589    0.54092    1.000
    O140     O        0.79480    0.71830    0.53515    1.000
    C346     C        0.82348    0.72254    0.54892    1.000
    C347     C        0.83348    0.69992    0.57756    1.000
    C348     C        0.81455    0.67043    0.58877    1.000
    H70      H        0.79410    0.66180    0.57910    1.000
    C349     C        0.83330    0.65646    0.61814    1.000
    C350     C        0.86230    0.67547    0.62744    1.000
    S71      S        0.37010    0.20936    0.60091    1.000
    O141     O        0.34404    0.24589    0.54092    1.000
    O142     O        0.29480    0.21830    0.53515    1.000
    C351     C        0.32348    0.22254    0.54892    1.000
    C352     C        0.33348    0.19992    0.57756    1.000
    C353     C        0.31455    0.17043    0.58877    1.000
    H71      H        0.29410    0.16180    0.57910    1.000
    C354     C        0.33330    0.15646    0.61814    1.000
    C355     C        0.36230    0.17547    0.62744    1.000
    S72      S        0.37010    0.70936    0.10091    1.000
    O143     O        0.34404    0.74589    0.04092    1.000
    O144     O        0.29480    0.71830    0.03515    1.000
    C356     C        0.32348    0.72254    0.04892    1.000
    C357     C        0.33348    0.69992    0.07756    1.000
    C358     C        0.31455    0.67043    0.08877    1.000
    H72      H        0.29410    0.66180    0.07910    1.000
    C359     C        0.33330    0.65646    0.11814    1.000
    C360     C        0.36230    0.67547    0.12744    1.000
    S73      S        0.87010    0.79064    0.89909    1.000
    O145     O        0.84404    0.75411    0.95908    1.000
    O146     O        0.79480    0.78170    0.96485    1.000
    C361     C        0.82348    0.77746    0.95108    1.000
    C362     C        0.83348    0.80008    0.92244    1.000
    C363     C        0.81455    0.82957    0.91123    1.000
    H73      H        0.79410    0.83820    0.92090    1.000
    C364     C        0.83330    0.84354    0.88186    1.000
    C365     C        0.86230    0.82453    0.87256    1.000
    S74      S        0.87010    0.29064    0.39909    1.000
    O147     O        0.84404    0.25411    0.45908    1.000
    O148     O        0.79480    0.28170    0.46485    1.000
    C366     C        0.82348    0.27746    0.45108    1.000
    C367     C        0.83348    0.30008    0.42244    1.000
    C368     C        0.81455    0.32957    0.41123    1.000
    H74      H        0.79410    0.33820    0.42090    1.000
    C369     C        0.83330    0.34354    0.38186    1.000
    C370     C        0.86230    0.32453    0.37256    1.000
    S75      S        0.37010    0.79064    0.39909    1.000
    O149     O        0.34404    0.75411    0.45908    1.000
    O150     O        0.29480    0.78170    0.46485    1.000
    C371     C        0.32348    0.77746    0.45108    1.000
    C372     C        0.33348    0.80008    0.42244    1.000
    C373     C        0.31455    0.82957    0.41123    1.000
    H75      H        0.29410    0.83820    0.42090    1.000
    C374     C        0.33330    0.84354    0.38186    1.000
    C375     C        0.36230    0.82453    0.37256    1.000
    S76      S        0.37010    0.29064    0.89909    1.000
    O151     O        0.34404    0.25411    0.95908    1.000
    O152     O        0.29480    0.28170    0.96485    1.000
    C376     C        0.32348    0.27746    0.95108    1.000
    C377     C        0.33348    0.30008    0.92244    1.000
    C378     C        0.31455    0.32957    0.91123    1.000
    H76      H        0.29410    0.33820    0.92090    1.000
    C379     C        0.33330    0.34354    0.88186    1.000
    C380     C        0.36230    0.32453    0.87256    1.000
    S77      S        0.12990    0.79064    0.10091    1.000
    O153     O        0.15596    0.75411    0.04092    1.000
    O154     O        0.20520    0.78170    0.03515    1.000
    C381     C        0.17652    0.77746    0.04892    1.000
    C382     C        0.16652    0.80008    0.07756    1.000
    C383     C        0.18545    0.82957    0.08877    1.000
    H77      H        0.20590    0.83820    0.07910    1.000
    C384     C        0.16670    0.84354    0.11814    1.000
    C385     C        0.13770    0.82453    0.12744    1.000
    S78      S        0.12990    0.29064    0.60091    1.000
    O155     O        0.15596    0.25411    0.54092    1.000
    O156     O        0.20520    0.28170    0.53515    1.000
    C386     C        0.17652    0.27746    0.54892    1.000
    C387     C        0.16652    0.30008    0.57756    1.000
    C388     C        0.18545    0.32957    0.58877    1.000
    H78      H        0.20590    0.33820    0.57910    1.000
    C389     C        0.16670    0.34354    0.61814    1.000
    C390     C        0.13770    0.32453    0.62744    1.000
    S79      S        0.62990    0.79064    0.60091    1.000
    O157     O        0.65596    0.75411    0.54092    1.000
    O158     O        0.70520    0.78170    0.53515    1.000
    C391     C        0.67652    0.77746    0.54892    1.000
    C392     C        0.66652    0.80008    0.57756    1.000
    C393     C        0.68545    0.82957    0.58877    1.000
    H79      H        0.70590    0.83820    0.57910    1.000
    C394     C        0.66670    0.84354    0.61814    1.000
    C395     C        0.63770    0.82453    0.62744    1.000
    S80      S        0.62990    0.29064    0.10091    1.000
    O159     O        0.65596    0.25411    0.04092    1.000
    O160     O        0.70520    0.28170    0.03515    1.000
    C396     C        0.67652    0.27746    0.04892    1.000
    C397     C        0.66652    0.30008    0.07756    1.000
    C398     C        0.68545    0.32957    0.08877    1.000
    H80      H        0.70590    0.33820    0.07910    1.000
    C399     C        0.66670    0.34354    0.11814    1.000
    C400     C        0.63770    0.32453    0.12744    1.000
    S81      S        0.20936    0.10091    0.87010    1.000
    O161     O        0.24589    0.04092    0.84404    1.000
    O162     O        0.21830    0.03515    0.79480    1.000
    C401     C        0.22254    0.04892    0.82348    1.000
    C402     C        0.19992    0.07756    0.83348    1.000
    C403     C        0.17043    0.08877    0.81455    1.000
    H81      H        0.16180    0.07910    0.79410    1.000
    C404     C        0.15646    0.11814    0.83330    1.000
    C405     C        0.17547    0.12744    0.86230    1.000
    S82      S        0.20936    0.60091    0.37010    1.000
    O163     O        0.24589    0.54092    0.34404    1.000
    O164     O        0.21830    0.53515    0.29480    1.000
    C406     C        0.22254    0.54892    0.32348    1.000
    C407     C        0.19992    0.57756    0.33348    1.000
    C408     C        0.17043    0.58877    0.31455    1.000
    H82      H        0.16180    0.57910    0.29410    1.000
    C409     C        0.15646    0.61814    0.33330    1.000
    C410     C        0.17547    0.62744    0.36230    1.000
    S83      S        0.70936    0.10091    0.37010    1.000
    O165     O        0.74589    0.04092    0.34404    1.000
    O166     O        0.71830    0.03515    0.29480    1.000
    C411     C        0.72254    0.04892    0.32348    1.000
    C412     C        0.69992    0.07756    0.33348    1.000
    C413     C        0.67043    0.08877    0.31455    1.000
    H83      H        0.66180    0.07910    0.29410    1.000
    C414     C        0.65646    0.11814    0.33330    1.000
    C415     C        0.67547    0.12744    0.36230    1.000
    S84      S        0.70936    0.60091    0.87010    1.000
    O167     O        0.74589    0.54092    0.84404    1.000
    O168     O        0.71830    0.53515    0.79480    1.000
    C416     C        0.72254    0.54892    0.82348    1.000
    C417     C        0.69992    0.57756    0.83348    1.000
    C418     C        0.67043    0.58877    0.81455    1.000
    H84      H        0.66180    0.57910    0.79410    1.000
    C419     C        0.65646    0.61814    0.83330    1.000
    C420     C        0.67547    0.62744    0.86230    1.000
    S85      S        0.20936    0.89909    0.12990    1.000
    O169     O        0.24589    0.95908    0.15596    1.000
    O170     O        0.21830    0.96485    0.20520    1.000
    C421     C        0.22254    0.95108    0.17652    1.000
    C422     C        0.19992    0.92244    0.16652    1.000
    C423     C        0.17043    0.91123    0.18545    1.000
    H85      H        0.16180    0.92090    0.20590    1.000
    C424     C        0.15646    0.88186    0.16670    1.000
    C425     C        0.17547    0.87256    0.13770    1.000
    S86      S        0.20936    0.39909    0.62990    1.000
    O171     O        0.24589    0.45908    0.65596    1.000
    O172     O        0.21830    0.46485    0.70520    1.000
    C426     C        0.22254    0.45108    0.67652    1.000
    C427     C        0.19992    0.42244    0.66652    1.000
    C428     C        0.17043    0.41123    0.68545    1.000
    H86      H        0.16180    0.42090    0.70590    1.000
    C429     C        0.15646    0.38186    0.66670    1.000
    C430     C        0.17547    0.37256    0.63770    1.000
    S87      S        0.70936    0.89909    0.62990    1.000
    O173     O        0.74589    0.95908    0.65596    1.000
    O174     O        0.71830    0.96485    0.70520    1.000
    C431     C        0.72254    0.95108    0.67652    1.000
    C432     C        0.69992    0.92244    0.66652    1.000
    C433     C        0.67043    0.91123    0.68545    1.000
    H87      H        0.66180    0.92090    0.70590    1.000
    C434     C        0.65646    0.88186    0.66670    1.000
    C435     C        0.67547    0.87256    0.63770    1.000
    S88      S        0.70936    0.39909    0.12990    1.000
    O175     O        0.74589    0.45908    0.15596    1.000
    O176     O        0.71830    0.46485    0.20520    1.000
    C436     C        0.72254    0.45108    0.17652    1.000
    C437     C        0.69992    0.42244    0.16652    1.000
    C438     C        0.67043    0.41123    0.18545    1.000
    H88      H        0.66180    0.42090    0.20590    1.000
    C439     C        0.65646    0.38186    0.16670    1.000
    C440     C        0.67547    0.37256    0.13770    1.000
    S89      S        0.79064    0.10091    0.12990    1.000
    O177     O        0.75411    0.04092    0.15596    1.000
    O178     O        0.78170    0.03515    0.20520    1.000
    C441     C        0.77746    0.04892    0.17652    1.000
    C442     C        0.80008    0.07756    0.16652    1.000
    C443     C        0.82957    0.08877    0.18545    1.000
    H89      H        0.83820    0.07910    0.20590    1.000
    C444     C        0.84354    0.11814    0.16670    1.000
    C445     C        0.82453    0.12744    0.13770    1.000
    S90      S        0.79064    0.60091    0.62990    1.000
    O179     O        0.75411    0.54092    0.65596    1.000
    O180     O        0.78170    0.53515    0.70520    1.000
    C446     C        0.77746    0.54892    0.67652    1.000
    C447     C        0.80008    0.57756    0.66652    1.000
    C448     C        0.82957    0.58877    0.68545    1.000
    H90      H        0.83820    0.57910    0.70590    1.000
    C449     C        0.84354    0.61814    0.66670    1.000
    C450     C        0.82453    0.62744    0.63770    1.000
    S91      S        0.29064    0.10091    0.62990    1.000
    O181     O        0.25411    0.04092    0.65596    1.000
    O182     O        0.28170    0.03515    0.70520    1.000
    C451     C        0.27746    0.04892    0.67652    1.000
    C452     C        0.30008    0.07756    0.66652    1.000
    C453     C        0.32957    0.08877    0.68545    1.000
    H91      H        0.33820    0.07910    0.70590    1.000
    C454     C        0.34354    0.11814    0.66670    1.000
    C455     C        0.32453    0.12744    0.63770    1.000
    S92      S        0.29064    0.60091    0.12990    1.000
    O183     O        0.25411    0.54092    0.15596    1.000
    O184     O        0.28170    0.53515    0.20520    1.000
    C456     C        0.27746    0.54892    0.17652    1.000
    C457     C        0.30008    0.57756    0.16652    1.000
    C458     C        0.32957    0.58877    0.18545    1.000
    H92      H        0.33820    0.57910    0.20590    1.000
    C459     C        0.34354    0.61814    0.16670    1.000
    C460     C        0.32453    0.62744    0.13770    1.000
    S93      S        0.79064    0.89909    0.87010    1.000
    O185     O        0.75411    0.95908    0.84404    1.000
    O186     O        0.78170    0.96485    0.79480    1.000
    C461     C        0.77746    0.95108    0.82348    1.000
    C462     C        0.80008    0.92244    0.83348    1.000
    C463     C        0.82957    0.91123    0.81455    1.000
    H93      H        0.83820    0.92090    0.79410    1.000
    C464     C        0.84354    0.88186    0.83330    1.000
    C465     C        0.82453    0.87256    0.86230    1.000
    S94      S        0.79064    0.39909    0.37010    1.000
    O187     O        0.75411    0.45908    0.34404    1.000
    O188     O        0.78170    0.46485    0.29480    1.000
    C466     C        0.77746    0.45108    0.32348    1.000
    C467     C        0.80008    0.42244    0.33348    1.000
    C468     C        0.82957    0.41123    0.31455    1.000
    H94      H        0.83820    0.42090    0.29410    1.000
    C469     C        0.84354    0.38186    0.33330    1.000
    C470     C        0.82453    0.37256    0.36230    1.000
    S95      S        0.29064    0.89909    0.37010    1.000
    O189     O        0.25411    0.95908    0.34404    1.000
    O190     O        0.28170    0.96485    0.29480    1.000
    C471     C        0.27746    0.95108    0.32348    1.000
    C472     C        0.30008    0.92244    0.33348    1.000
    C473     C        0.32957    0.91123    0.31455    1.000
    H95      H        0.33820    0.92090    0.29410    1.000
    C474     C        0.34354    0.88186    0.33330    1.000
    C475     C        0.32453    0.87256    0.36230    1.000
    S96      S        0.29064    0.39909    0.87010    1.000
    O191     O        0.25411    0.45908    0.84404    1.000
    O192     O        0.28170    0.46485    0.79480    1.000
    C476     C        0.27746    0.45108    0.82348    1.000
    C477     C        0.30008    0.42244    0.83348    1.000
    C478     C        0.32957    0.41123    0.81455    1.000
    H96      H        0.33820    0.42090    0.79410    1.000
    C479     C        0.34354    0.38186    0.83330    1.000
    C480     C        0.32453    0.37256    0.86230    1.000
    S97      S        0.37010    0.39909    0.29064    1.000
    O193     O        0.34404    0.45908    0.25411    1.000
    O194     O        0.29480    0.46485    0.28170    1.000
    C481     C        0.32348    0.45108    0.27746    1.000
    C482     C        0.33348    0.42244    0.30008    1.000
    C483     C        0.31455    0.41123    0.32957    1.000
    H97      H        0.29410    0.42090    0.33820    1.000
    C484     C        0.33330    0.38186    0.34354    1.000
    C485     C        0.36230    0.37256    0.32453    1.000
    S98      S        0.37010    0.89909    0.79064    1.000
    O195     O        0.34404    0.95908    0.75411    1.000
    O196     O        0.29480    0.96485    0.78170    1.000
    C486     C        0.32348    0.95108    0.77746    1.000
    C487     C        0.33348    0.92244    0.80008    1.000
    C488     C        0.31455    0.91123    0.82957    1.000
    H98      H        0.29410    0.92090    0.83820    1.000
    C489     C        0.33330    0.88186    0.84354    1.000
    C490     C        0.36230    0.87256    0.82453    1.000
    S99      S        0.87010    0.39909    0.79064    1.000
    O197     O        0.84404    0.45908    0.75411    1.000
    O198     O        0.79480    0.46485    0.78170    1.000
    C491     C        0.82348    0.45108    0.77746    1.000
    C492     C        0.83348    0.42244    0.80008    1.000
    C493     C        0.81455    0.41123    0.82957    1.000
    H99      H        0.79410    0.42090    0.83820    1.000
    C494     C        0.83330    0.38186    0.84354    1.000
    C495     C        0.86230    0.37256    0.82453    1.000
    S100     S        0.87010    0.89909    0.29064    1.000
    O199     O        0.84404    0.95908    0.25411    1.000
    O200     O        0.79480    0.96485    0.28170    1.000
    C496     C        0.82348    0.95108    0.27746    1.000
    C497     C        0.83348    0.92244    0.30008    1.000
    C498     C        0.81455    0.91123    0.32957    1.000
    H100     H        0.79410    0.92090    0.33820    1.000
    C499     C        0.83330    0.88186    0.34354    1.000
    C500     C        0.86230    0.87256    0.32453    1.000
    S101     S        0.62990    0.60091    0.29064    1.000
    O201     O        0.65596    0.54092    0.25411    1.000
    O202     O        0.70520    0.53515    0.28170    1.000
    C501     C        0.67652    0.54892    0.27746    1.000
    C502     C        0.66652    0.57756    0.30008    1.000
    C503     C        0.68545    0.58877    0.32957    1.000
    H101     H        0.70590    0.57910    0.33820    1.000
    C504     C        0.66670    0.61814    0.34354    1.000
    C505     C        0.63770    0.62744    0.32453    1.000
    S102     S        0.62990    0.10091    0.79064    1.000
    O203     O        0.65596    0.04092    0.75411    1.000
    O204     O        0.70520    0.03515    0.78170    1.000
    C506     C        0.67652    0.04892    0.77746    1.000
    C507     C        0.66652    0.07756    0.80008    1.000
    C508     C        0.68545    0.08877    0.82957    1.000
    H102     H        0.70590    0.07910    0.83820    1.000
    C509     C        0.66670    0.11814    0.84354    1.000
    C510     C        0.63770    0.12744    0.82453    1.000
    S103     S        0.12990    0.60091    0.79064    1.000
    O205     O        0.15596    0.54092    0.75411    1.000
    O206     O        0.20520    0.53515    0.78170    1.000
    C511     C        0.17652    0.54892    0.77746    1.000
    C512     C        0.16652    0.57756    0.80008    1.000
    C513     C        0.18545    0.58877    0.82957    1.000
    H103     H        0.20590    0.57910    0.83820    1.000
    C514     C        0.16670    0.61814    0.84354    1.000
    C515     C        0.13770    0.62744    0.82453    1.000
    S104     S        0.12990    0.10091    0.29064    1.000
    O207     O        0.15596    0.04092    0.25411    1.000
    O208     O        0.20520    0.03515    0.28170    1.000
    C516     C        0.17652    0.04892    0.27746    1.000
    C517     C        0.16652    0.07756    0.30008    1.000
    C518     C        0.18545    0.08877    0.32957    1.000
    H104     H        0.20590    0.07910    0.33820    1.000
    C519     C        0.16670    0.11814    0.34354    1.000
    C520     C        0.13770    0.12744    0.32453    1.000
    S105     S        0.62990    0.39909    0.70936    1.000
    O209     O        0.65596    0.45908    0.74589    1.000
    O210     O        0.70520    0.46485    0.71830    1.000
    C521     C        0.67652    0.45108    0.72254    1.000
    C522     C        0.66652    0.42244    0.69992    1.000
    C523     C        0.68545    0.41123    0.67043    1.000
    H105     H        0.70590    0.42090    0.66180    1.000
    C524     C        0.66670    0.38186    0.65646    1.000
    C525     C        0.63770    0.37256    0.67547    1.000
    S106     S        0.62990    0.89909    0.20936    1.000
    O211     O        0.65596    0.95908    0.24589    1.000
    O212     O        0.70520    0.96485    0.21830    1.000
    C526     C        0.67652    0.95108    0.22254    1.000
    C527     C        0.66652    0.92244    0.19992    1.000
    C528     C        0.68545    0.91123    0.17043    1.000
    H106     H        0.70590    0.92090    0.16180    1.000
    C529     C        0.66670    0.88186    0.15646    1.000
    C530     C        0.63770    0.87256    0.17547    1.000
    S107     S        0.12990    0.39909    0.20936    1.000
    O213     O        0.15596    0.45908    0.24589    1.000
    O214     O        0.20520    0.46485    0.21830    1.000
    C531     C        0.17652    0.45108    0.22254    1.000
    C532     C        0.16652    0.42244    0.19992    1.000
    C533     C        0.18545    0.41123    0.17043    1.000
    H107     H        0.20590    0.42090    0.16180    1.000
    C534     C        0.16670    0.38186    0.15646    1.000
    C535     C        0.13770    0.37256    0.17547    1.000
    S108     S        0.12990    0.89909    0.70936    1.000
    O215     O        0.15596    0.95908    0.74589    1.000
    O216     O        0.20520    0.96485    0.71830    1.000
    C536     C        0.17652    0.95108    0.72254    1.000
    C537     C        0.16652    0.92244    0.69992    1.000
    C538     C        0.18545    0.91123    0.67043    1.000
    H108     H        0.20590    0.92090    0.66180    1.000
    C539     C        0.16670    0.88186    0.65646    1.000
    C540     C        0.13770    0.87256    0.67547    1.000
    S109     S        0.37010    0.60091    0.70936    1.000
    O217     O        0.34404    0.54092    0.74589    1.000
    O218     O        0.29480    0.53515    0.71830    1.000
    C541     C        0.32348    0.54892    0.72254    1.000
    C542     C        0.33348    0.57756    0.69992    1.000
    C543     C        0.31455    0.58877    0.67043    1.000
    H109     H        0.29410    0.57910    0.66180    1.000
    C544     C        0.33330    0.61814    0.65646    1.000
    C545     C        0.36230    0.62744    0.67547    1.000
    S110     S        0.37010    0.10091    0.20936    1.000
    O219     O        0.34404    0.04092    0.24589    1.000
    O220     O        0.29480    0.03515    0.21830    1.000
    C546     C        0.32348    0.04892    0.22254    1.000
    C547     C        0.33348    0.07756    0.19992    1.000
    C548     C        0.31455    0.08877    0.17043    1.000
    H110     H        0.29410    0.07910    0.16180    1.000
    C549     C        0.33330    0.11814    0.15646    1.000
    C550     C        0.36230    0.12744    0.17547    1.000
    S111     S        0.87010    0.60091    0.20936    1.000
    O221     O        0.84404    0.54092    0.24589    1.000
    O222     O        0.79480    0.53515    0.21830    1.000
    C551     C        0.82348    0.54892    0.22254    1.000
    C552     C        0.83348    0.57756    0.19992    1.000
    C553     C        0.81455    0.58877    0.17043    1.000
    H111     H        0.79410    0.57910    0.16180    1.000
    C554     C        0.83330    0.61814    0.15646    1.000
    C555     C        0.86230    0.62744    0.17547    1.000
    S112     S        0.87010    0.10091    0.70936    1.000
    O223     O        0.84404    0.04092    0.74589    1.000
    O224     O        0.79480    0.03515    0.71830    1.000
    C556     C        0.82348    0.04892    0.72254    1.000
    C557     C        0.83348    0.07756    0.69992    1.000
    C558     C        0.81455    0.08877    0.67043    1.000
    H112     H        0.79410    0.07910    0.66180    1.000
    C559     C        0.83330    0.11814    0.65646    1.000
    C560     C        0.86230    0.12744    0.67547    1.000
    S113     S        0.29064    0.37010    0.39909    1.000
    O225     O        0.25411    0.34404    0.45908    1.000
    O226     O        0.28170    0.29480    0.46485    1.000
    C561     C        0.27746    0.32348    0.45108    1.000
    C562     C        0.30008    0.33348    0.42244    1.000
    C563     C        0.32957    0.31455    0.41123    1.000
    H113     H        0.33820    0.29410    0.42090    1.000
    C564     C        0.34354    0.33330    0.38186    1.000
    C565     C        0.32453    0.36230    0.37256    1.000
    S114     S        0.29064    0.87010    0.89909    1.000
    O227     O        0.25411    0.84404    0.95908    1.000
    O228     O        0.28170    0.79480    0.96485    1.000
    C566     C        0.27746    0.82348    0.95108    1.000
    C567     C        0.30008    0.83348    0.92244    1.000
    C568     C        0.32957    0.81455    0.91123    1.000
    H114     H        0.33820    0.79410    0.92090    1.000
    C569     C        0.34354    0.83330    0.88186    1.000
    C570     C        0.32453    0.86230    0.87256    1.000
    S115     S        0.79064    0.37010    0.89909    1.000
    O229     O        0.75411    0.34404    0.95908    1.000
    O230     O        0.78170    0.29480    0.96485    1.000
    C571     C        0.77746    0.32348    0.95108    1.000
    C572     C        0.80008    0.33348    0.92244    1.000
    C573     C        0.82957    0.31455    0.91123    1.000
    H115     H        0.83820    0.29410    0.92090    1.000
    C574     C        0.84354    0.33330    0.88186    1.000
    C575     C        0.82453    0.36230    0.87256    1.000
    S116     S        0.79064    0.87010    0.39909    1.000
    O231     O        0.75411    0.84404    0.45908    1.000
    O232     O        0.78170    0.79480    0.46485    1.000
    C576     C        0.77746    0.82348    0.45108    1.000
    C577     C        0.80008    0.83348    0.42244    1.000
    C578     C        0.82957    0.81455    0.41123    1.000
    H116     H        0.83820    0.79410    0.42090    1.000
    C579     C        0.84354    0.83330    0.38186    1.000
    C580     C        0.82453    0.86230    0.37256    1.000
    S117     S        0.29064    0.62990    0.60091    1.000
    O233     O        0.25411    0.65596    0.54092    1.000
    O234     O        0.28170    0.70520    0.53515    1.000
    C581     C        0.27746    0.67652    0.54892    1.000
    C582     C        0.30008    0.66652    0.57756    1.000
    C583     C        0.32957    0.68545    0.58877    1.000
    H117     H        0.33820    0.70590    0.57910    1.000
    C584     C        0.34354    0.66670    0.61814    1.000
    C585     C        0.32453    0.63770    0.62744    1.000
    S118     S        0.29064    0.12990    0.10091    1.000
    O235     O        0.25411    0.15596    0.04092    1.000
    O236     O        0.28170    0.20520    0.03515    1.000
    C586     C        0.27746    0.17652    0.04892    1.000
    C587     C        0.30008    0.16652    0.07756    1.000
    C588     C        0.32957    0.18545    0.08877    1.000
    H118     H        0.33820    0.20590    0.07910    1.000
    C589     C        0.34354    0.16670    0.11814    1.000
    C590     C        0.32453    0.13770    0.12744    1.000
    S119     S        0.79064    0.62990    0.10091    1.000
    O237     O        0.75411    0.65596    0.04092    1.000
    O238     O        0.78170    0.70520    0.03515    1.000
    C591     C        0.77746    0.67652    0.04892    1.000
    C592     C        0.80008    0.66652    0.07756    1.000
    C593     C        0.82957    0.68545    0.08877    1.000
    H119     H        0.83820    0.70590    0.07910    1.000
    C594     C        0.84354    0.66670    0.11814    1.000
    C595     C        0.82453    0.63770    0.12744    1.000
    S120     S        0.79064    0.12990    0.60091    1.000
    O239     O        0.75411    0.15596    0.54092    1.000
    O240     O        0.78170    0.20520    0.53515    1.000
    C596     C        0.77746    0.17652    0.54892    1.000
    C597     C        0.80008    0.16652    0.57756    1.000
    C598     C        0.82957    0.18545    0.58877    1.000
    H120     H        0.83820    0.20590    0.57910    1.000
    C599     C        0.84354    0.16670    0.61814    1.000
    C600     C        0.82453    0.13770    0.62744    1.000
    S121     S        0.70936    0.62990    0.39909    1.000
    O241     O        0.74589    0.65596    0.45908    1.000
    O242     O        0.71830    0.70520    0.46485    1.000
    C601     C        0.72254    0.67652    0.45108    1.000
    C602     C        0.69992    0.66652    0.42244    1.000
    C603     C        0.67043    0.68545    0.41123    1.000
    H121     H        0.66180    0.70590    0.42090    1.000
    C604     C        0.65646    0.66670    0.38186    1.000
    C605     C        0.67547    0.63770    0.37256    1.000
    S122     S        0.70936    0.12990    0.89909    1.000
    O243     O        0.74589    0.15596    0.95908    1.000
    O244     O        0.71830    0.20520    0.96485    1.000
    C606     C        0.72254    0.17652    0.95108    1.000
    C607     C        0.69992    0.16652    0.92244    1.000
    C608     C        0.67043    0.18545    0.91123    1.000
    H122     H        0.66180    0.20590    0.92090    1.000
    C609     C        0.65646    0.16670    0.88186    1.000
    C610     C        0.67547    0.13770    0.87256    1.000
    S123     S        0.20936    0.62990    0.89909    1.000
    O245     O        0.24589    0.65596    0.95908    1.000
    O246     O        0.21830    0.70520    0.96485    1.000
    C611     C        0.22254    0.67652    0.95108    1.000
    C612     C        0.19992    0.66652    0.92244    1.000
    C613     C        0.17043    0.68545    0.91123    1.000
    H123     H        0.16180    0.70590    0.92090    1.000
    C614     C        0.15646    0.66670    0.88186    1.000
    C615     C        0.17547    0.63770    0.87256    1.000
    S124     S        0.20936    0.12990    0.39909    1.000
    O247     O        0.24589    0.15596    0.45908    1.000
    O248     O        0.21830    0.20520    0.46485    1.000
    C616     C        0.22254    0.17652    0.45108    1.000
    C617     C        0.19992    0.16652    0.42244    1.000
    C618     C        0.17043    0.18545    0.41123    1.000
    H124     H        0.16180    0.20590    0.42090    1.000
    C619     C        0.15646    0.16670    0.38186    1.000
    C620     C        0.17547    0.13770    0.37256    1.000
    S125     S        0.70936    0.37010    0.60091    1.000
    O249     O        0.74589    0.34404    0.54092    1.000
    O250     O        0.71830    0.29480    0.53515    1.000
    C621     C        0.72254    0.32348    0.54892    1.000
    C622     C        0.69992    0.33348    0.57756    1.000
    C623     C        0.67043    0.31455    0.58877    1.000
    H125     H        0.66180    0.29410    0.57910    1.000
    C624     C        0.65646    0.33330    0.61814    1.000
    C625     C        0.67547    0.36230    0.62744    1.000
    S126     S        0.70936    0.87010    0.10091    1.000
    O251     O        0.74589    0.84404    0.04092    1.000
    O252     O        0.71830    0.79480    0.03515    1.000
    C626     C        0.72254    0.82348    0.04892    1.000
    C627     C        0.69992    0.83348    0.07756    1.000
    C628     C        0.67043    0.81455    0.08877    1.000
    H126     H        0.66180    0.79410    0.07910    1.000
    C629     C        0.65646    0.83330    0.11814    1.000
    C630     C        0.67547    0.86230    0.12744    1.000
    S127     S        0.20936    0.37010    0.10091    1.000
    O253     O        0.24589    0.34404    0.04092    1.000
    O254     O        0.21830    0.29480    0.03515    1.000
    C631     C        0.22254    0.32348    0.04892    1.000
    C632     C        0.19992    0.33348    0.07756    1.000
    C633     C        0.17043    0.31455    0.08877    1.000
    H127     H        0.16180    0.29410    0.07910    1.000
    C634     C        0.15646    0.33330    0.11814    1.000
    C635     C        0.17547    0.36230    0.12744    1.000
    S128     S        0.20936    0.87010    0.60091    1.000
    O255     O        0.24589    0.84404    0.54092    1.000
    O256     O        0.21830    0.79480    0.53515    1.000
    C636     C        0.22254    0.82348    0.54892    1.000
    C637     C        0.19992    0.83348    0.57756    1.000
    C638     C        0.17043    0.81455    0.58877    1.000
    H128     H        0.16180    0.79410    0.57910    1.000
    C639     C        0.15646    0.83330    0.61814    1.000
    C640     C        0.17547    0.86230    0.62744    1.000
    S129     S        0.39909    0.29064    0.37010    1.000
    O257     O        0.45908    0.25411    0.34404    1.000
    O258     O        0.46485    0.28170    0.29480    1.000
    C641     C        0.45108    0.27746    0.32348    1.000
    C642     C        0.42244    0.30008    0.33348    1.000
    C643     C        0.41123    0.32957    0.31455    1.000
    H129     H        0.42090    0.33820    0.29410    1.000
    C644     C        0.38186    0.34354    0.33330    1.000
    C645     C        0.37256    0.32453    0.36230    1.000
    S130     S        0.39909    0.79064    0.87010    1.000
    O259     O        0.45908    0.75411    0.84404    1.000
    O260     O        0.46485    0.78170    0.79480    1.000
    C646     C        0.45108    0.77746    0.82348    1.000
    C647     C        0.42244    0.80008    0.83348    1.000
    C648     C        0.41123    0.82957    0.81455    1.000
    H130     H        0.42090    0.83820    0.79410    1.000
    C649     C        0.38186    0.84354    0.83330    1.000
    C650     C        0.37256    0.82453    0.86230    1.000
    S131     S        0.89909    0.29064    0.87010    1.000
    O261     O        0.95908    0.25411    0.84404    1.000
    O262     O        0.96485    0.28170    0.79480    1.000
    C651     C        0.95108    0.27746    0.82348    1.000
    C652     C        0.92244    0.30008    0.83348    1.000
    C653     C        0.91123    0.32957    0.81455    1.000
    H131     H        0.92090    0.33820    0.79410    1.000
    C654     C        0.88186    0.34354    0.83330    1.000
    C655     C        0.87256    0.32453    0.86230    1.000
    S132     S        0.89909    0.79064    0.37010    1.000
    O263     O        0.95908    0.75411    0.34404    1.000
    O264     O        0.96485    0.78170    0.29480    1.000
    C656     C        0.95108    0.77746    0.32348    1.000
    C657     C        0.92244    0.80008    0.33348    1.000
    C658     C        0.91123    0.82957    0.31455    1.000
    H132     H        0.92090    0.83820    0.29410    1.000
    C659     C        0.88186    0.84354    0.33330    1.000
    C660     C        0.87256    0.82453    0.36230    1.000
    S133     S        0.60091    0.29064    0.62990    1.000
    O265     O        0.54092    0.25411    0.65596    1.000
    O266     O        0.53515    0.28170    0.70520    1.000
    C661     C        0.54892    0.27746    0.67652    1.000
    C662     C        0.57756    0.30008    0.66652    1.000
    C663     C        0.58877    0.32957    0.68545    1.000
    H133     H        0.57910    0.33820    0.70590    1.000
    C664     C        0.61814    0.34354    0.66670    1.000
    C665     C        0.62744    0.32453    0.63770    1.000
    S134     S        0.60091    0.79064    0.12990    1.000
    O267     O        0.54092    0.75411    0.15596    1.000
    O268     O        0.53515    0.78170    0.20520    1.000
    C666     C        0.54892    0.77746    0.17652    1.000
    C667     C        0.57756    0.80008    0.16652    1.000
    C668     C        0.58877    0.82957    0.18545    1.000
    H134     H        0.57910    0.83820    0.20590    1.000
    C669     C        0.61814    0.84354    0.16670    1.000
    C670     C        0.62744    0.82453    0.13770    1.000
    S135     S        0.10091    0.29064    0.12990    1.000
    O269     O        0.04092    0.25411    0.15596    1.000
    O270     O        0.03515    0.28170    0.20520    1.000
    C671     C        0.04892    0.27746    0.17652    1.000
    C672     C        0.07756    0.30008    0.16652    1.000
    C673     C        0.08877    0.32957    0.18545    1.000
    H135     H        0.07910    0.33820    0.20590    1.000
    C674     C        0.11814    0.34354    0.16670    1.000
    C675     C        0.12744    0.32453    0.13770    1.000
    S136     S        0.10091    0.79064    0.62990    1.000
    O271     O        0.04092    0.75411    0.65596    1.000
    O272     O        0.03515    0.78170    0.70520    1.000
    C676     C        0.04892    0.77746    0.67652    1.000
    C677     C        0.07756    0.80008    0.66652    1.000
    C678     C        0.08877    0.82957    0.68545    1.000
    H136     H        0.07910    0.83820    0.70590    1.000
    C679     C        0.11814    0.84354    0.66670    1.000
    C680     C        0.12744    0.82453    0.63770    1.000
    S137     S        0.39909    0.70936    0.62990    1.000
    O273     O        0.45908    0.74589    0.65596    1.000
    O274     O        0.46485    0.71830    0.70520    1.000
    C681     C        0.45108    0.72254    0.67652    1.000
    C682     C        0.42244    0.69992    0.66652    1.000
    C683     C        0.41123    0.67043    0.68545    1.000
    H137     H        0.42090    0.66180    0.70590    1.000
    C684     C        0.38186    0.65646    0.66670    1.000
    C685     C        0.37256    0.67547    0.63770    1.000
    S138     S        0.39909    0.20936    0.12990    1.000
    O275     O        0.45908    0.24589    0.15596    1.000
    O276     O        0.46485    0.21830    0.20520    1.000
    C686     C        0.45108    0.22254    0.17652    1.000
    C687     C        0.42244    0.19992    0.16652    1.000
    C688     C        0.41123    0.17043    0.18545    1.000
    H138     H        0.42090    0.16180    0.20590    1.000
    C689     C        0.38186    0.15646    0.16670    1.000
    C690     C        0.37256    0.17547    0.13770    1.000
    S139     S        0.89909    0.70936    0.12990    1.000
    O277     O        0.95908    0.74589    0.15596    1.000
    O278     O        0.96485    0.71830    0.20520    1.000
    C691     C        0.95108    0.72254    0.17652    1.000
    C692     C        0.92244    0.69992    0.16652    1.000
    C693     C        0.91123    0.67043    0.18545    1.000
    H139     H        0.92090    0.66180    0.20590    1.000
    C694     C        0.88186    0.65646    0.16670    1.000
    C695     C        0.87256    0.67547    0.13770    1.000
    S140     S        0.89909    0.20936    0.62990    1.000
    O279     O        0.95908    0.24589    0.65596    1.000
    O280     O        0.96485    0.21830    0.70520    1.000
    C696     C        0.95108    0.22254    0.67652    1.000
    C697     C        0.92244    0.19992    0.66652    1.000
    C698     C        0.91123    0.17043    0.68545    1.000
    H140     H        0.92090    0.16180    0.70590    1.000
    C699     C        0.88186    0.15646    0.66670    1.000
    C700     C        0.87256    0.17547    0.63770    1.000
    S141     S        0.60091    0.70936    0.37010    1.000
    O281     O        0.54092    0.74589    0.34404    1.000
    O282     O        0.53515    0.71830    0.29480    1.000
    C701     C        0.54892    0.72254    0.32348    1.000
    C702     C        0.57756    0.69992    0.33348    1.000
    C703     C        0.58877    0.67043    0.31455    1.000
    H141     H        0.57910    0.66180    0.29410    1.000
    C704     C        0.61814    0.65646    0.33330    1.000
    C705     C        0.62744    0.67547    0.36230    1.000
    S142     S        0.60091    0.20936    0.87010    1.000
    O283     O        0.54092    0.24589    0.84404    1.000
    O284     O        0.53515    0.21830    0.79480    1.000
    C706     C        0.54892    0.22254    0.82348    1.000
    C707     C        0.57756    0.19992    0.83348    1.000
    C708     C        0.58877    0.17043    0.81455    1.000
    H142     H        0.57910    0.16180    0.79410    1.000
    C709     C        0.61814    0.15646    0.83330    1.000
    C710     C        0.62744    0.17547    0.86230    1.000
    S143     S        0.10091    0.70936    0.87010    1.000
    O285     O        0.04092    0.74589    0.84404    1.000
    O286     O        0.03515    0.71830    0.79480    1.000
    C711     C        0.04892    0.72254    0.82348    1.000
    C712     C        0.07756    0.69992    0.83348    1.000
    C713     C        0.08877    0.67043    0.81455    1.000
    H143     H        0.07910    0.66180    0.79410    1.000
    C714     C        0.11814    0.65646    0.83330    1.000
    C715     C        0.12744    0.67547    0.86230    1.000
    S144     S        0.10091    0.20936    0.37010    1.000
    O287     O        0.04092    0.24589    0.34404    1.000
    O288     O        0.03515    0.21830    0.29480    1.000
    C716     C        0.04892    0.22254    0.32348    1.000
    C717     C        0.07756    0.19992    0.33348    1.000
    C718     C        0.08877    0.17043    0.31455    1.000
    H144     H        0.07910    0.16180    0.29410    1.000
    C719     C        0.11814    0.15646    0.33330    1.000
    C720     C        0.12744    0.17547    0.36230    1.000
    S145     S        0.89909    0.87010    0.20936    1.000
    O289     O        0.95908    0.84404    0.24589    1.000
    O290     O        0.96485    0.79480    0.21830    1.000
    C721     C        0.95108    0.82348    0.22254    1.000
    C722     C        0.92244    0.83348    0.19992    1.000
    C723     C        0.91123    0.81455    0.17043    1.000
    H145     H        0.92090    0.79410    0.16180    1.000
    C724     C        0.88186    0.83330    0.15646    1.000
    C725     C        0.87256    0.86230    0.17547    1.000
    S146     S        0.89909    0.37010    0.70936    1.000
    O291     O        0.95908    0.34404    0.74589    1.000
    O292     O        0.96485    0.29480    0.71830    1.000
    C726     C        0.95108    0.32348    0.72254    1.000
    C727     C        0.92244    0.33348    0.69992    1.000
    C728     C        0.91123    0.31455    0.67043    1.000
    H146     H        0.92090    0.29410    0.66180    1.000
    C729     C        0.88186    0.33330    0.65646    1.000
    C730     C        0.87256    0.36230    0.67547    1.000
    S147     S        0.39909    0.87010    0.70936    1.000
    O293     O        0.45908    0.84404    0.74589    1.000
    O294     O        0.46485    0.79480    0.71830    1.000
    C731     C        0.45108    0.82348    0.72254    1.000
    C732     C        0.42244    0.83348    0.69992    1.000
    C733     C        0.41123    0.81455    0.67043    1.000
    H147     H        0.42090    0.79410    0.66180    1.000
    C734     C        0.38186    0.83330    0.65646    1.000
    C735     C        0.37256    0.86230    0.67547    1.000
    S148     S        0.39909    0.37010    0.20936    1.000
    O295     O        0.45908    0.34404    0.24589    1.000
    O296     O        0.46485    0.29480    0.21830    1.000
    C736     C        0.45108    0.32348    0.22254    1.000
    C737     C        0.42244    0.33348    0.19992    1.000
    C738     C        0.41123    0.31455    0.17043    1.000
    H148     H        0.42090    0.29410    0.16180    1.000
    C739     C        0.38186    0.33330    0.15646    1.000
    C740     C        0.37256    0.36230    0.17547    1.000
    S149     S        0.10091    0.12990    0.20936    1.000
    O297     O        0.04092    0.15596    0.24589    1.000
    O298     O        0.03515    0.20520    0.21830    1.000
    C741     C        0.04892    0.17652    0.22254    1.000
    C742     C        0.07756    0.16652    0.19992    1.000
    C743     C        0.08877    0.18545    0.17043    1.000
    H149     H        0.07910    0.20590    0.16180    1.000
    C744     C        0.11814    0.16670    0.15646    1.000
    C745     C        0.12744    0.13770    0.17547    1.000
    S150     S        0.10091    0.62990    0.70936    1.000
    O299     O        0.04092    0.65596    0.74589    1.000
    O300     O        0.03515    0.70520    0.71830    1.000
    C746     C        0.04892    0.67652    0.72254    1.000
    C747     C        0.07756    0.66652    0.69992    1.000
    C748     C        0.08877    0.68545    0.67043    1.000
    H150     H        0.07910    0.70590    0.66180    1.000
    C749     C        0.11814    0.66670    0.65646    1.000
    C750     C        0.12744    0.63770    0.67547    1.000
    S151     S        0.60091    0.12990    0.70936    1.000
    O301     O        0.54092    0.15596    0.74589    1.000
    O302     O        0.53515    0.20520    0.71830    1.000
    C751     C        0.54892    0.17652    0.72254    1.000
    C752     C        0.57756    0.16652    0.69992    1.000
    C753     C        0.58877    0.18545    0.67043    1.000
    H151     H        0.57910    0.20590    0.66180    1.000
    C754     C        0.61814    0.16670    0.65646    1.000
    C755     C        0.62744    0.13770    0.67547    1.000
    S152     S        0.60091    0.62990    0.20936    1.000
    O303     O        0.54092    0.65596    0.24589    1.000
    O304     O        0.53515    0.70520    0.21830    1.000
    C756     C        0.54892    0.67652    0.22254    1.000
    C757     C        0.57756    0.66652    0.19992    1.000
    C758     C        0.58877    0.68545    0.17043    1.000
    H152     H        0.57910    0.70590    0.16180    1.000
    C759     C        0.61814    0.66670    0.15646    1.000
    C760     C        0.62744    0.63770    0.17547    1.000
    S153     S        0.89909    0.12990    0.79064    1.000
    O305     O        0.95908    0.15596    0.75411    1.000
    O306     O        0.96485    0.20520    0.78170    1.000
    C761     C        0.95108    0.17652    0.77746    1.000
    C762     C        0.92244    0.16652    0.80008    1.000
    C763     C        0.91123    0.18545    0.82957    1.000
    H153     H        0.92090    0.20590    0.83820    1.000
    C764     C        0.88186    0.16670    0.84354    1.000
    C765     C        0.87256    0.13770    0.82453    1.000
    S154     S        0.89909    0.62990    0.29064    1.000
    O307     O        0.95908    0.65596    0.25411    1.000
    O308     O        0.96485    0.70520    0.28170    1.000
    C766     C        0.95108    0.67652    0.27746    1.000
    C767     C        0.92244    0.66652    0.30008    1.000
    C768     C        0.91123    0.68545    0.32957    1.000
    H154     H        0.92090    0.70590    0.33820    1.000
    C769     C        0.88186    0.66670    0.34354    1.000
    C770     C        0.87256    0.63770    0.32453    1.000
    S155     S        0.39909    0.12990    0.29064    1.000
    O309     O        0.45908    0.15596    0.25411    1.000
    O310     O        0.46485    0.20520    0.28170    1.000
    C771     C        0.45108    0.17652    0.27746    1.000
    C772     C        0.42244    0.16652    0.30008    1.000
    C773     C        0.41123    0.18545    0.32957    1.000
    H155     H        0.42090    0.20590    0.33820    1.000
    C774     C        0.38186    0.16670    0.34354    1.000
    C775     C        0.37256    0.13770    0.32453    1.000
    S156     S        0.39909    0.62990    0.79064    1.000
    O311     O        0.45908    0.65596    0.75411    1.000
    O312     O        0.46485    0.70520    0.78170    1.000
    C776     C        0.45108    0.67652    0.77746    1.000
    C777     C        0.42244    0.66652    0.80008    1.000
    C778     C        0.41123    0.68545    0.82957    1.000
    H156     H        0.42090    0.70590    0.83820    1.000
    C779     C        0.38186    0.66670    0.84354    1.000
    C780     C        0.37256    0.63770    0.82453    1.000
    S157     S        0.10091    0.87010    0.79064    1.000
    O313     O        0.04092    0.84404    0.75411    1.000
    O314     O        0.03515    0.79480    0.78170    1.000
    C781     C        0.04892    0.82348    0.77746    1.000
    C782     C        0.07756    0.83348    0.80008    1.000
    C783     C        0.08877    0.81455    0.82957    1.000
    H157     H        0.07910    0.79410    0.83820    1.000
    C784     C        0.11814    0.83330    0.84354    1.000
    C785     C        0.12744    0.86230    0.82453    1.000
    S158     S        0.10091    0.37010    0.29064    1.000
    O315     O        0.04092    0.34404    0.25411    1.000
    O316     O        0.03515    0.29480    0.28170    1.000
    C786     C        0.04892    0.32348    0.27746    1.000
    C787     C        0.07756    0.33348    0.30008    1.000
    C788     C        0.08877    0.31455    0.32957    1.000
    H158     H        0.07910    0.29410    0.33820    1.000
    C789     C        0.11814    0.33330    0.34354    1.000
    C790     C        0.12744    0.36230    0.32453    1.000
    S159     S        0.60091    0.87010    0.29064    1.000
    O317     O        0.54092    0.84404    0.25411    1.000
    O318     O        0.53515    0.79480    0.28170    1.000
    C791     C        0.54892    0.82348    0.27746    1.000
    C792     C        0.57756    0.83348    0.30008    1.000
    C793     C        0.58877    0.81455    0.32957    1.000
    H159     H        0.57910    0.79410    0.33820    1.000
    C794     C        0.61814    0.83330    0.34354    1.000
    C795     C        0.62744    0.86230    0.32453    1.000
    S160     S        0.60091    0.37010    0.79064    1.000
    O319     O        0.54092    0.34404    0.75411    1.000
    O320     O        0.53515    0.29480    0.78170    1.000
    C796     C        0.54892    0.32348    0.77746    1.000
    C797     C        0.57756    0.33348    0.80008    1.000
    C798     C        0.58877    0.31455    0.82957    1.000
    H160     H        0.57910    0.29410    0.83820    1.000
    C799     C        0.61814    0.33330    0.84354    1.000
    C800     C        0.62744    0.36230    0.82453    1.000
    S161     S        0.87010    0.79064    0.10091    1.000
    O321     O        0.84404    0.75411    0.04092    1.000
    O322     O        0.79480    0.78170    0.03515    1.000
    C801     C        0.82348    0.77746    0.04892    1.000
    C802     C        0.83348    0.80008    0.07756    1.000
    C803     C        0.81455    0.82957    0.08877    1.000
    H161     H        0.79410    0.83820    0.07910    1.000
    C804     C        0.83330    0.84354    0.11814    1.000
    C805     C        0.86230    0.82453    0.12744    1.000
    S162     S        0.87010    0.29064    0.60091    1.000
    O323     O        0.84404    0.25411    0.54092    1.000
    O324     O        0.79480    0.28170    0.53515    1.000
    C806     C        0.82348    0.27746    0.54892    1.000
    C807     C        0.83348    0.30008    0.57756    1.000
    C808     C        0.81455    0.32957    0.58877    1.000
    H162     H        0.79410    0.33820    0.57910    1.000
    C809     C        0.83330    0.34354    0.61814    1.000
    C810     C        0.86230    0.32453    0.62744    1.000
    S163     S        0.37010    0.79064    0.60091    1.000
    O325     O        0.34404    0.75411    0.54092    1.000
    O326     O        0.29480    0.78170    0.53515    1.000
    C811     C        0.32348    0.77746    0.54892    1.000
    C812     C        0.33348    0.80008    0.57756    1.000
    C813     C        0.31455    0.82957    0.58877    1.000
    H163     H        0.29410    0.83820    0.57910    1.000
    C814     C        0.33330    0.84354    0.61814    1.000
    C815     C        0.36230    0.82453    0.62744    1.000
    S164     S        0.37010    0.29064    0.10091    1.000
    O327     O        0.34404    0.25411    0.04092    1.000
    O328     O        0.29480    0.28170    0.03515    1.000
    C816     C        0.32348    0.27746    0.04892    1.000
    C817     C        0.33348    0.30008    0.07756    1.000
    C818     C        0.31455    0.32957    0.08877    1.000
    H164     H        0.29410    0.33820    0.07910    1.000
    C819     C        0.33330    0.34354    0.11814    1.000
    C820     C        0.36230    0.32453    0.12744    1.000
    S165     S        0.12990    0.79064    0.89909    1.000
    O329     O        0.15596    0.75411    0.95908    1.000
    O330     O        0.20520    0.78170    0.96485    1.000
    C821     C        0.17652    0.77746    0.95108    1.000
    C822     C        0.16652    0.80008    0.92244    1.000
    C823     C        0.18545    0.82957    0.91123    1.000
    H165     H        0.20590    0.83820    0.92090    1.000
    C824     C        0.16670    0.84354    0.88186    1.000
    C825     C        0.13770    0.82453    0.87256    1.000
    S166     S        0.12990    0.29064    0.39909    1.000
    O331     O        0.15596    0.25411    0.45908    1.000
    O332     O        0.20520    0.28170    0.46485    1.000
    C826     C        0.17652    0.27746    0.45108    1.000
    C827     C        0.16652    0.30008    0.42244    1.000
    C828     C        0.18545    0.32957    0.41123    1.000
    H166     H        0.20590    0.33820    0.42090    1.000
    C829     C        0.16670    0.34354    0.38186    1.000
    C830     C        0.13770    0.32453    0.37256    1.000
    S167     S        0.62990    0.79064    0.39909    1.000
    O333     O        0.65596    0.75411    0.45908    1.000
    O334     O        0.70520    0.78170    0.46485    1.000
    C831     C        0.67652    0.77746    0.45108    1.000
    C832     C        0.66652    0.80008    0.42244    1.000
    C833     C        0.68545    0.82957    0.41123    1.000
    H167     H        0.70590    0.83820    0.42090    1.000
    C834     C        0.66670    0.84354    0.38186    1.000
    C835     C        0.63770    0.82453    0.37256    1.000
    S168     S        0.62990    0.29064    0.89909    1.000
    O335     O        0.65596    0.25411    0.95908    1.000
    O336     O        0.70520    0.28170    0.96485    1.000
    C836     C        0.67652    0.27746    0.95108    1.000
    C837     C        0.66652    0.30008    0.92244    1.000
    C838     C        0.68545    0.32957    0.91123    1.000
    H168     H        0.70590    0.33820    0.92090    1.000
    C839     C        0.66670    0.34354    0.88186    1.000
    C840     C        0.63770    0.32453    0.87256    1.000
    S169     S        0.12990    0.20936    0.10091    1.000
    O337     O        0.15596    0.24589    0.04092    1.000
    O338     O        0.20520    0.21830    0.03515    1.000
    C841     C        0.17652    0.22254    0.04892    1.000
    C842     C        0.16652    0.19992    0.07756    1.000
    C843     C        0.18545    0.17043    0.08877    1.000
    H169     H        0.20590    0.16180    0.07910    1.000
    C844     C        0.16670    0.15646    0.11814    1.000
    C845     C        0.13770    0.17547    0.12744    1.000
    S170     S        0.12990    0.70936    0.60091    1.000
    O339     O        0.15596    0.74589    0.54092    1.000
    O340     O        0.20520    0.71830    0.53515    1.000
    C846     C        0.17652    0.72254    0.54892    1.000
    C847     C        0.16652    0.69992    0.57756    1.000
    C848     C        0.18545    0.67043    0.58877    1.000
    H170     H        0.20590    0.66180    0.57910    1.000
    C849     C        0.16670    0.65646    0.61814    1.000
    C850     C        0.13770    0.67547    0.62744    1.000
    S171     S        0.62990    0.20936    0.60091    1.000
    O341     O        0.65596    0.24589    0.54092    1.000
    O342     O        0.70520    0.21830    0.53515    1.000
    C851     C        0.67652    0.22254    0.54892    1.000
    C852     C        0.66652    0.19992    0.57756    1.000
    C853     C        0.68545    0.17043    0.58877    1.000
    H171     H        0.70590    0.16180    0.57910    1.000
    C854     C        0.66670    0.15646    0.61814    1.000
    C855     C        0.63770    0.17547    0.62744    1.000
    S172     S        0.62990    0.70936    0.10091    1.000
    O343     O        0.65596    0.74589    0.04092    1.000
    O344     O        0.70520    0.71830    0.03515    1.000
    C856     C        0.67652    0.72254    0.04892    1.000
    C857     C        0.66652    0.69992    0.07756    1.000
    C858     C        0.68545    0.67043    0.08877    1.000
    H172     H        0.70590    0.66180    0.07910    1.000
    C859     C        0.66670    0.65646    0.11814    1.000
    C860     C        0.63770    0.67547    0.12744    1.000
    S173     S        0.87010    0.20936    0.89909    1.000
    O345     O        0.84404    0.24589    0.95908    1.000
    O346     O        0.79480    0.21830    0.96485    1.000
    C861     C        0.82348    0.22254    0.95108    1.000
    C862     C        0.83348    0.19992    0.92244    1.000
    C863     C        0.81455    0.17043    0.91123    1.000
    H173     H        0.79410    0.16180    0.92090    1.000
    C864     C        0.83330    0.15646    0.88186    1.000
    C865     C        0.86230    0.17547    0.87256    1.000
    S174     S        0.87010    0.70936    0.39909    1.000
    O347     O        0.84404    0.74589    0.45908    1.000
    O348     O        0.79480    0.71830    0.46485    1.000
    C866     C        0.82348    0.72254    0.45108    1.000
    C867     C        0.83348    0.69992    0.42244    1.000
    C868     C        0.81455    0.67043    0.41123    1.000
    H174     H        0.79410    0.66180    0.42090    1.000
    C869     C        0.83330    0.65646    0.38186    1.000
    C870     C        0.86230    0.67547    0.37256    1.000
    S175     S        0.37010    0.20936    0.39909    1.000
    O349     O        0.34404    0.24589    0.45908    1.000
    O350     O        0.29480    0.21830    0.46485    1.000
    C871     C        0.32348    0.22254    0.45108    1.000
    C872     C        0.33348    0.19992    0.42244    1.000
    C873     C        0.31455    0.17043    0.41123    1.000
    H175     H        0.29410    0.16180    0.42090    1.000
    C874     C        0.33330    0.15646    0.38186    1.000
    C875     C        0.36230    0.17547    0.37256    1.000
    S176     S        0.37010    0.70936    0.89909    1.000
    O351     O        0.34404    0.74589    0.95908    1.000
    O352     O        0.29480    0.71830    0.96485    1.000
    C876     C        0.32348    0.72254    0.95108    1.000
    C877     C        0.33348    0.69992    0.92244    1.000
    C878     C        0.31455    0.67043    0.91123    1.000
    H176     H        0.29410    0.66180    0.92090    1.000
    C879     C        0.33330    0.65646    0.88186    1.000
    C880     C        0.36230    0.67547    0.87256    1.000
    S177     S        0.79064    0.89909    0.12990    1.000
    O353     O        0.75411    0.95908    0.15596    1.000
    O354     O        0.78170    0.96485    0.20520    1.000
    C881     C        0.77746    0.95108    0.17652    1.000
    C882     C        0.80008    0.92244    0.16652    1.000
    C883     C        0.82957    0.91123    0.18545    1.000
    H177     H        0.83820    0.92090    0.20590    1.000
    C884     C        0.84354    0.88186    0.16670    1.000
    C885     C        0.82453    0.87256    0.13770    1.000
    S178     S        0.79064    0.39909    0.62990    1.000
    O355     O        0.75411    0.45908    0.65596    1.000
    O356     O        0.78170    0.46485    0.70520    1.000
    C886     C        0.77746    0.45108    0.67652    1.000
    C887     C        0.80008    0.42244    0.66652    1.000
    C888     C        0.82957    0.41123    0.68545    1.000
    H178     H        0.83820    0.42090    0.70590    1.000
    C889     C        0.84354    0.38186    0.66670    1.000
    C890     C        0.82453    0.37256    0.63770    1.000
    S179     S        0.29064    0.89909    0.62990    1.000
    O357     O        0.25411    0.95908    0.65596    1.000
    O358     O        0.28170    0.96485    0.70520    1.000
    C891     C        0.27746    0.95108    0.67652    1.000
    C892     C        0.30008    0.92244    0.66652    1.000
    C893     C        0.32957    0.91123    0.68545    1.000
    H179     H        0.33820    0.92090    0.70590    1.000
    C894     C        0.34354    0.88186    0.66670    1.000
    C895     C        0.32453    0.87256    0.63770    1.000
    S180     S        0.29064    0.39909    0.12990    1.000
    O359     O        0.25411    0.45908    0.15596    1.000
    O360     O        0.28170    0.46485    0.20520    1.000
    C896     C        0.27746    0.45108    0.17652    1.000
    C897     C        0.30008    0.42244    0.16652    1.000
    C898     C        0.32957    0.41123    0.18545    1.000
    H180     H        0.33820    0.42090    0.20590    1.000
    C899     C        0.34354    0.38186    0.16670    1.000
    C900     C        0.32453    0.37256    0.13770    1.000
    S181     S        0.79064    0.10091    0.87010    1.000
    O361     O        0.75411    0.04092    0.84404    1.000
    O362     O        0.78170    0.03515    0.79480    1.000
    C901     C        0.77746    0.04892    0.82348    1.000
    C902     C        0.80008    0.07756    0.83348    1.000
    C903     C        0.82957    0.08877    0.81455    1.000
    H181     H        0.83820    0.07910    0.79410    1.000
    C904     C        0.84354    0.11814    0.83330    1.000
    C905     C        0.82453    0.12744    0.86230    1.000
    S182     S        0.79064    0.60091    0.37010    1.000
    O363     O        0.75411    0.54092    0.34404    1.000
    O364     O        0.78170    0.53515    0.29480    1.000
    C906     C        0.77746    0.54892    0.32348    1.000
    C907     C        0.80008    0.57756    0.33348    1.000
    C908     C        0.82957    0.58877    0.31455    1.000
    H182     H        0.83820    0.57910    0.29410    1.000
    C909     C        0.84354    0.61814    0.33330    1.000
    C910     C        0.82453    0.62744    0.36230    1.000
    S183     S        0.29064    0.10091    0.37010    1.000
    O365     O        0.25411    0.04092    0.34404    1.000
    O366     O        0.28170    0.03515    0.29480    1.000
    C911     C        0.27746    0.04892    0.32348    1.000
    C912     C        0.30008    0.07756    0.33348    1.000
    C913     C        0.32957    0.08877    0.31455    1.000
    H183     H        0.33820    0.07910    0.29410    1.000
    C914     C        0.34354    0.11814    0.33330    1.000
    C915     C        0.32453    0.12744    0.36230    1.000
    S184     S        0.29064    0.60091    0.87010    1.000
    O367     O        0.25411    0.54092    0.84404    1.000
    O368     O        0.28170    0.53515    0.79480    1.000
    C916     C        0.27746    0.54892    0.82348    1.000
    C917     C        0.30008    0.57756    0.83348    1.000
    C918     C        0.32957    0.58877    0.81455    1.000
    H184     H        0.33820    0.57910    0.79410    1.000
    C919     C        0.34354    0.61814    0.83330    1.000
    C920     C        0.32453    0.62744    0.86230    1.000
    S185     S        0.20936    0.89909    0.87010    1.000
    O369     O        0.24589    0.95908    0.84404    1.000
    O370     O        0.21830    0.96485    0.79480    1.000
    C921     C        0.22254    0.95108    0.82348    1.000
    C922     C        0.19992    0.92244    0.83348    1.000
    C923     C        0.17043    0.91123    0.81455    1.000
    H185     H        0.16180    0.92090    0.79410    1.000
    C924     C        0.15646    0.88186    0.83330    1.000
    C925     C        0.17547    0.87256    0.86230    1.000
    S186     S        0.20936    0.39909    0.37010    1.000
    O371     O        0.24589    0.45908    0.34404    1.000
    O372     O        0.21830    0.46485    0.29480    1.000
    C926     C        0.22254    0.45108    0.32348    1.000
    C927     C        0.19992    0.42244    0.33348    1.000
    C928     C        0.17043    0.41123    0.31455    1.000
    H186     H        0.16180    0.42090    0.29410    1.000
    C929     C        0.15646    0.38186    0.33330    1.000
    C930     C        0.17547    0.37256    0.36230    1.000
    S187     S        0.70936    0.89909    0.37010    1.000
    O373     O        0.74589    0.95908    0.34404    1.000
    O374     O        0.71830    0.96485    0.29480    1.000
    C931     C        0.72254    0.95108    0.32348    1.000
    C932     C        0.69992    0.92244    0.33348    1.000
    C933     C        0.67043    0.91123    0.31455    1.000
    H187     H        0.66180    0.92090    0.29410    1.000
    C934     C        0.65646    0.88186    0.33330    1.000
    C935     C        0.67547    0.87256    0.36230    1.000
    S188     S        0.70936    0.39909    0.87010    1.000
    O375     O        0.74589    0.45908    0.84404    1.000
    O376     O        0.71830    0.46485    0.79480    1.000
    C936     C        0.72254    0.45108    0.82348    1.000
    C937     C        0.69992    0.42244    0.83348    1.000
    C938     C        0.67043    0.41123    0.81455    1.000
    H188     H        0.66180    0.42090    0.79410    1.000
    C939     C        0.65646    0.38186    0.83330    1.000
    C940     C        0.67547    0.37256    0.86230    1.000
    S189     S        0.20936    0.10091    0.12990    1.000
    O377     O        0.24589    0.04092    0.15596    1.000
    O378     O        0.21830    0.03515    0.20520    1.000
    C941     C        0.22254    0.04892    0.17652    1.000
    C942     C        0.19992    0.07756    0.16652    1.000
    C943     C        0.17043    0.08877    0.18545    1.000
    H189     H        0.16180    0.07910    0.20590    1.000
    C944     C        0.15646    0.11814    0.16670    1.000
    C945     C        0.17547    0.12744    0.13770    1.000
    S190     S        0.20936    0.60091    0.62990    1.000
    O379     O        0.24589    0.54092    0.65596    1.000
    O380     O        0.21830    0.53515    0.70520    1.000
    C946     C        0.22254    0.54892    0.67652    1.000
    C947     C        0.19992    0.57756    0.66652    1.000
    C948     C        0.17043    0.58877    0.68545    1.000
    H190     H        0.16180    0.57910    0.70590    1.000
    C949     C        0.15646    0.61814    0.66670    1.000
    C950     C        0.17547    0.62744    0.63770    1.000
    S191     S        0.70936    0.10091    0.62990    1.000
    O381     O        0.74589    0.04092    0.65596    1.000
    O382     O        0.71830    0.03515    0.70520    1.000
    C951     C        0.72254    0.04892    0.67652    1.000
    C952     C        0.69992    0.07756    0.66652    1.000
    C953     C        0.67043    0.08877    0.68545    1.000
    H191     H        0.66180    0.07910    0.70590    1.000
    C954     C        0.65646    0.11814    0.66670    1.000
    C955     C        0.67547    0.12744    0.63770    1.000
    S192     S        0.70936    0.60091    0.12990    1.000
    O383     O        0.74589    0.54092    0.15596    1.000
    O384     O        0.71830    0.53515    0.20520    1.000
    C956     C        0.72254    0.54892    0.17652    1.000
    C957     C        0.69992    0.57756    0.16652    1.000
    C958     C        0.67043    0.58877    0.18545    1.000
    H192     H        0.66180    0.57910    0.20590    1.000
    C959     C        0.65646    0.61814    0.16670    1.000
    C960     C        0.67547    0.62744    0.13770    1.000
    Mn1      Mn       0.68386    0.50000    0.77163    1.000
    Mn2      Mn       0.68386    0.00000    0.27163    1.000
    Mn3      Mn       0.18386    0.50000    0.27163    1.000
    Mn4      Mn       0.18386    0.00000    0.77163    1.000
    Mn5      Mn       0.31614    0.50000    0.77163    1.000
    Mn6      Mn       0.31614    0.00000    0.27163    1.000
    Mn7      Mn       0.81614    0.50000    0.27163    1.000
    Mn8      Mn       0.81614    0.00000    0.77163    1.000
    Mn9      Mn       0.31614    0.50000    0.22837    1.000
    Mn10     Mn       0.31614    0.00000    0.72837    1.000
    Mn11     Mn       0.81614    0.50000    0.72837    1.000
    Mn12     Mn       0.81614    0.00000    0.22837    1.000
    Mn13     Mn       0.68386    0.50000    0.22837    1.000
    Mn14     Mn       0.68386    0.00000    0.72837    1.000
    Mn15     Mn       0.18386    0.50000    0.72837    1.000
    Mn16     Mn       0.18386    0.00000    0.22837    1.000
    Mn17     Mn       0.77163    0.68386    0.50000    1.000
    Mn18     Mn       0.77163    0.18386    0.00000    1.000
    Mn19     Mn       0.27163    0.68386    0.00000    1.000
    Mn20     Mn       0.27163    0.18386    0.50000    1.000
    Mn21     Mn       0.77163    0.31614    0.50000    1.000
    Mn22     Mn       0.77163    0.81614    0.00000    1.000
    Mn23     Mn       0.27163    0.31614    0.00000    1.000
    Mn24     Mn       0.27163    0.81614    0.50000    1.000
    Mn25     Mn       0.22837    0.31614    0.50000    1.000
    Mn26     Mn       0.22837    0.81614    0.00000    1.000
    Mn27     Mn       0.72837    0.31614    0.00000    1.000
    Mn28     Mn       0.72837    0.81614    0.50000    1.000
    Mn29     Mn       0.22837    0.68386    0.50000    1.000
    Mn30     Mn       0.22837    0.18386    0.00000    1.000
    Mn31     Mn       0.72837    0.68386    0.00000    1.000
    Mn32     Mn       0.72837    0.18386    0.50000    1.000
    Mn33     Mn       0.50000    0.77163    0.68386    1.000
    Mn34     Mn       0.50000    0.27163    0.18386    1.000
    Mn35     Mn       0.00000    0.77163    0.18386    1.000
    Mn36     Mn       0.00000    0.27163    0.68386    1.000
    Mn37     Mn       0.50000    0.77163    0.31614    1.000
    Mn38     Mn       0.50000    0.27163    0.81614    1.000
    Mn39     Mn       0.00000    0.77163    0.81614    1.000
    Mn40     Mn       0.00000    0.27163    0.31614    1.000
    Mn41     Mn       0.50000    0.22837    0.31614    1.000
    Mn42     Mn       0.50000    0.72837    0.81614    1.000
    Mn43     Mn       0.00000    0.22837    0.81614    1.000
    Mn44     Mn       0.00000    0.72837    0.31614    1.000
    Mn45     Mn       0.50000    0.22837    0.68386    1.000
    Mn46     Mn       0.50000    0.72837    0.18386    1.000
    Mn47     Mn       0.00000    0.22837    0.18386    1.000
    Mn48     Mn       0.00000    0.72837    0.68386    1.000
    Mn49     Mn       0.00000    0.18386    0.72837    1.000
    Mn50     Mn       0.00000    0.68386    0.22837    1.000
    Mn51     Mn       0.50000    0.18386    0.22837    1.000
    Mn52     Mn       0.50000    0.68386    0.72837    1.000
    Mn53     Mn       0.00000    0.81614    0.72837    1.000
    Mn54     Mn       0.00000    0.31614    0.22837    1.000
    Mn55     Mn       0.50000    0.81614    0.22837    1.000
    Mn56     Mn       0.50000    0.31614    0.72837    1.000
    Mn57     Mn       0.00000    0.81614    0.27163    1.000
    Mn58     Mn       0.00000    0.31614    0.77163    1.000
    Mn59     Mn       0.50000    0.81614    0.77163    1.000
    Mn60     Mn       0.50000    0.31614    0.27163    1.000
    Mn61     Mn       0.00000    0.18386    0.27163    1.000
    Mn62     Mn       0.00000    0.68386    0.77163    1.000
    Mn63     Mn       0.50000    0.18386    0.77163    1.000
    Mn64     Mn       0.50000    0.68386    0.27163    1.000
    Mn65     Mn       0.18386    0.27163    0.00000    1.000
    Mn66     Mn       0.18386    0.77163    0.50000    1.000
    Mn67     Mn       0.68386    0.27163    0.50000    1.000
    Mn68     Mn       0.68386    0.77163    0.00000    1.000
    Mn69     Mn       0.81614    0.27163    0.00000    1.000
    Mn70     Mn       0.81614    0.77163    0.50000    1.000
    Mn71     Mn       0.31614    0.27163    0.50000    1.000
    Mn72     Mn       0.31614    0.77163    0.00000    1.000
    Mn73     Mn       0.81614    0.72837    0.00000    1.000
    Mn74     Mn       0.81614    0.22837    0.50000    1.000
    Mn75     Mn       0.31614    0.72837    0.50000    1.000
    Mn76     Mn       0.31614    0.22837    0.00000    1.000
    Mn77     Mn       0.18386    0.72837    0.00000    1.000
    Mn78     Mn       0.18386    0.22837    0.50000    1.000
    Mn79     Mn       0.68386    0.72837    0.50000    1.000
    Mn80     Mn       0.68386    0.22837    0.00000    1.000
    Mn81     Mn       0.27163    0.00000    0.81614    1.000
    Mn82     Mn       0.27163    0.50000    0.31614    1.000
    Mn83     Mn       0.77163    0.00000    0.31614    1.000
    Mn84     Mn       0.77163    0.50000    0.81614    1.000
    Mn85     Mn       0.27163    0.00000    0.18386    1.000
    Mn86     Mn       0.27163    0.50000    0.68386    1.000
    Mn87     Mn       0.77163    0.00000    0.68386    1.000
    Mn88     Mn       0.77163    0.50000    0.18386    1.000
    Mn89     Mn       0.72837    0.00000    0.18386    1.000
    Mn90     Mn       0.72837    0.50000    0.68386    1.000
    Mn91     Mn       0.22837    0.00000    0.68386    1.000
    Mn92     Mn       0.22837    0.50000    0.18386    1.000
    Mn93     Mn       0.72837    0.00000    0.81614    1.000
    Mn94     Mn       0.72837    0.50000    0.31614    1.000
    Mn95     Mn       0.22837    0.00000    0.31614    1.000
    Mn96     Mn       0.22837    0.50000    0.81614    1.000
