# CIF file generated by openbabel 3.1.0, see https://openbabel.org
data_I
_chemical_name_common 'image0'
_cell_length_a 13.2563
_cell_length_b 13.2563
_cell_length_c 27.5616
_cell_angle_alpha 90
_cell_angle_beta 90
_cell_angle_gamma 90
_space_group_name_H-M_alt 'P 1'
_space_group_name_Hall 'P 1'
loop_
    _symmetry_equiv_pos_as_xyz
    x,y,z
loop_
    _atom_site_label
    _atom_site_type_symbol
    _atom_site_fract_x
    _atom_site_fract_y
    _atom_site_fract_z
    _atom_site_occupancy
    C1       C        0.15330    0.72660    0.20143    1.000
    C2       C        0.09050    0.66730    0.23092    1.000
    C3       C        0.16810    0.58970    0.14494    1.000
    C4       C        0.10780    0.53110    0.17453    1.000
    H1       H        0.09320    0.46370    0.16510    1.000
    H2       H        0.19450    0.56230    0.11570    1.000
    H3       H        0.17030    0.79290    0.21160    1.000
    H4       H        0.06340    0.69470    0.26000    1.000
    C5       C        0.20630    0.82810    0.09584    1.000
    C6       C        0.35490    0.74510    0.12216    1.000
    C7       C        0.40880    0.80330    0.08865    1.000
    H5       H        0.48010    0.79610    0.08770    1.000
    C8       C        0.26530    0.88190    0.06299    1.000
    H6       H        0.23390    0.93080    0.04290    1.000
    H7       H        0.38980    0.69930    0.14270    1.000
    H8       H        0.13600    0.84070    0.09840    1.000
    C9       C        0.84670    0.27340    0.20143    1.000
    C10      C        0.90950    0.33270    0.23092    1.000
    C11      C        0.83190    0.41030    0.14494    1.000
    C12      C        0.89220    0.46890    0.17453    1.000
    H9       H        0.90680    0.53630    0.16510    1.000
    H10      H        0.80550    0.43770    0.11570    1.000
    H11      H        0.82970    0.20710    0.21160    1.000
    H12      H        0.93660    0.30530    0.26000    1.000
    C13      C        0.79370    0.17190    0.09584    1.000
    C14      C        0.64510    0.25490    0.12216    1.000
    C15      C        0.59120    0.19670    0.08865    1.000
    H13      H        0.51990    0.20390    0.08770    1.000
    C16      C        0.73470    0.11810    0.06299    1.000
    H14      H        0.76610    0.06920    0.04290    1.000
    H15      H        0.61020    0.30070    0.14270    1.000
    H16      H        0.86400    0.15930    0.09840    1.000
    C17      C        0.77340    0.65330    0.70143    1.000
    C18      C        0.83270    0.59050    0.73092    1.000
    C19      C        0.91030    0.66810    0.64494    1.000
    C20      C        0.96890    0.60780    0.67453    1.000
    H17      H        0.03630    0.59320    0.66510    1.000
    H18      H        0.93770    0.69450    0.61570    1.000
    H19      H        0.70710    0.67030    0.71160    1.000
    H20      H        0.80530    0.56340    0.76000    1.000
    C21      C        0.67190    0.70630    0.59584    1.000
    C22      C        0.75490    0.85490    0.62216    1.000
    C23      C        0.69670    0.90880    0.58865    1.000
    H21      H        0.70390    0.98010    0.58770    1.000
    C24      C        0.61810    0.76530    0.56299    1.000
    H22      H        0.56920    0.73390    0.54290    1.000
    H23      H        0.80070    0.88980    0.64270    1.000
    H24      H        0.65930    0.63600    0.59840    1.000
    C25      C        0.22660    0.34670    0.70143    1.000
    C26      C        0.16730    0.40950    0.73092    1.000
    C27      C        0.08970    0.33190    0.64494    1.000
    C28      C        0.03110    0.39220    0.67453    1.000
    H25      H        0.96370    0.40680    0.66510    1.000
    H26      H        0.06230    0.30550    0.61570    1.000
    H27      H        0.29290    0.32970    0.71160    1.000
    H28      H        0.19470    0.43660    0.76000    1.000
    C29      C        0.32810    0.29370    0.59584    1.000
    C30      C        0.24510    0.14510    0.62216    1.000
    C31      C        0.30330    0.09120    0.58865    1.000
    H29      H        0.29610    0.01990    0.58770    1.000
    C32      C        0.38190    0.23470    0.56299    1.000
    H30      H        0.43080    0.26610    0.54290    1.000
    H31      H        0.19930    0.11020    0.64270    1.000
    H32      H        0.34070    0.36400    0.59840    1.000
    C33      C        0.84670    0.72660    0.29857    1.000
    C34      C        0.90950    0.66730    0.26908    1.000
    C35      C        0.83190    0.58970    0.35506    1.000
    C36      C        0.89220    0.53110    0.32547    1.000
    H33      H        0.90680    0.46370    0.33490    1.000
    H34      H        0.80550    0.56230    0.38430    1.000
    H35      H        0.82970    0.79290    0.28840    1.000
    H36      H        0.93660    0.69470    0.24000    1.000
    C37      C        0.79370    0.82810    0.40416    1.000
    C38      C        0.64510    0.74510    0.37784    1.000
    C39      C        0.59120    0.80330    0.41135    1.000
    H37      H        0.51990    0.79610    0.41230    1.000
    C40      C        0.73470    0.88190    0.43701    1.000
    H38      H        0.76610    0.93080    0.45710    1.000
    H39      H        0.61020    0.69930    0.35730    1.000
    H40      H        0.86400    0.84070    0.40160    1.000
    C41      C        0.15330    0.27340    0.29857    1.000
    C42      C        0.09050    0.33270    0.26908    1.000
    C43      C        0.16810    0.41030    0.35506    1.000
    C44      C        0.10780    0.46890    0.32547    1.000
    H41      H        0.09320    0.53630    0.33490    1.000
    H42      H        0.19450    0.43770    0.38430    1.000
    H43      H        0.17030    0.20710    0.28840    1.000
    H44      H        0.06340    0.30530    0.24000    1.000
    C45      C        0.20630    0.17190    0.40416    1.000
    C46      C        0.35490    0.25490    0.37784    1.000
    C47      C        0.40880    0.19670    0.41135    1.000
    H45      H        0.48010    0.20390    0.41230    1.000
    C48      C        0.26530    0.11810    0.43701    1.000
    H46      H        0.23390    0.06920    0.45710    1.000
    H47      H        0.38980    0.30070    0.35730    1.000
    H48      H        0.13600    0.15930    0.40160    1.000
    C49      C        0.22660    0.65330    0.79857    1.000
    C50      C        0.16730    0.59050    0.76908    1.000
    C51      C        0.08970    0.66810    0.85506    1.000
    C52      C        0.03110    0.60780    0.82547    1.000
    H49      H        0.96370    0.59320    0.83490    1.000
    H50      H        0.06230    0.69450    0.88430    1.000
    H51      H        0.29290    0.67030    0.78840    1.000
    H52      H        0.19470    0.56340    0.74000    1.000
    C53      C        0.32810    0.70630    0.90416    1.000
    C54      C        0.24510    0.85490    0.87784    1.000
    C55      C        0.30330    0.90880    0.91135    1.000
    H53      H        0.29610    0.98010    0.91230    1.000
    C56      C        0.38190    0.76530    0.93701    1.000
    H54      H        0.43080    0.73390    0.95710    1.000
    H55      H        0.19930    0.88980    0.85730    1.000
    H56      H        0.34070    0.63600    0.90160    1.000
    C57      C        0.77340    0.34670    0.79857    1.000
    C58      C        0.83270    0.40950    0.76908    1.000
    C59      C        0.91030    0.33190    0.85506    1.000
    C60      C        0.96890    0.39220    0.82547    1.000
    H57      H        0.03630    0.40680    0.83490    1.000
    H58      H        0.93770    0.30550    0.88430    1.000
    H59      H        0.70710    0.32970    0.78840    1.000
    H60      H        0.80530    0.43660    0.74000    1.000
    C61      C        0.67190    0.29370    0.90416    1.000
    C62      C        0.75490    0.14510    0.87784    1.000
    C63      C        0.69670    0.09120    0.91135    1.000
    H61      H        0.70390    0.01990    0.91230    1.000
    C64      C        0.61810    0.23470    0.93701    1.000
    H62      H        0.56920    0.26610    0.95710    1.000
    H63      H        0.80070    0.11020    0.85730    1.000
    H64      H        0.65930    0.36400    0.90160    1.000
    C65      C        0.84670    0.27340    0.79857    1.000
    C66      C        0.90950    0.33270    0.76908    1.000
    C67      C        0.83190    0.41030    0.85506    1.000
    C68      C        0.89220    0.46890    0.82547    1.000
    H65      H        0.90680    0.53630    0.83490    1.000
    H66      H        0.80550    0.43770    0.88430    1.000
    H67      H        0.82970    0.20710    0.78840    1.000
    H68      H        0.93660    0.30530    0.74000    1.000
    C69      C        0.79370    0.17190    0.90416    1.000
    C70      C        0.64510    0.25490    0.87784    1.000
    C71      C        0.59120    0.19670    0.91135    1.000
    H69      H        0.51990    0.20390    0.91230    1.000
    C72      C        0.73470    0.11810    0.93701    1.000
    H70      H        0.76610    0.06920    0.95710    1.000
    H71      H        0.61020    0.30070    0.85730    1.000
    H72      H        0.86400    0.15930    0.90160    1.000
    C73      C        0.15330    0.72660    0.79857    1.000
    C74      C        0.09050    0.66730    0.76908    1.000
    C75      C        0.16810    0.58970    0.85506    1.000
    C76      C        0.10780    0.53110    0.82547    1.000
    H73      H        0.09320    0.46370    0.83490    1.000
    H74      H        0.19450    0.56230    0.88430    1.000
    H75      H        0.17030    0.79290    0.78840    1.000
    H76      H        0.06340    0.69470    0.74000    1.000
    C77      C        0.20630    0.82810    0.90416    1.000
    C78      C        0.35490    0.74510    0.87784    1.000
    C79      C        0.40880    0.80330    0.91135    1.000
    H77      H        0.48010    0.79610    0.91230    1.000
    C80      C        0.26530    0.88190    0.93701    1.000
    H78      H        0.23390    0.93080    0.95710    1.000
    H79      H        0.38980    0.69930    0.85730    1.000
    H80      H        0.13600    0.84070    0.90160    1.000
    C81      C        0.22660    0.34670    0.29857    1.000
    C82      C        0.16730    0.40950    0.26908    1.000
    C83      C        0.08970    0.33190    0.35506    1.000
    C84      C        0.03110    0.39220    0.32547    1.000
    H81      H        0.96370    0.40680    0.33490    1.000
    H82      H        0.06230    0.30550    0.38430    1.000
    H83      H        0.29290    0.32970    0.28840    1.000
    H84      H        0.19470    0.43660    0.24000    1.000
    C85      C        0.32810    0.29370    0.40416    1.000
    C86      C        0.24510    0.14510    0.37784    1.000
    C87      C        0.30330    0.09120    0.41135    1.000
    H85      H        0.29610    0.01990    0.41230    1.000
    C88      C        0.38190    0.23470    0.43701    1.000
    H86      H        0.43080    0.26610    0.45710    1.000
    H87      H        0.19930    0.11020    0.35730    1.000
    H88      H        0.34070    0.36400    0.40160    1.000
    C89      C        0.77340    0.65330    0.29857    1.000
    C90      C        0.83270    0.59050    0.26908    1.000
    C91      C        0.91030    0.66810    0.35506    1.000
    C92      C        0.96890    0.60780    0.32547    1.000
    H89      H        0.03630    0.59320    0.33490    1.000
    H90      H        0.93770    0.69450    0.38430    1.000
    H91      H        0.70710    0.67030    0.28840    1.000
    H92      H        0.80530    0.56340    0.24000    1.000
    C93      C        0.67190    0.70630    0.40416    1.000
    C94      C        0.75490    0.85490    0.37784    1.000
    C95      C        0.69670    0.90880    0.41135    1.000
    H93      H        0.70390    0.98010    0.41230    1.000
    C96      C        0.61810    0.76530    0.43701    1.000
    H94      H        0.56920    0.73390    0.45710    1.000
    H95      H        0.80070    0.88980    0.35730    1.000
    H96      H        0.65930    0.63600    0.40160    1.000
    C97      C        0.15330    0.27340    0.70143    1.000
    C98      C        0.09050    0.33270    0.73092    1.000
    C99      C        0.16810    0.41030    0.64494    1.000
    C100     C        0.10780    0.46890    0.67453    1.000
    H97      H        0.09320    0.53630    0.66510    1.000
    H98      H        0.19450    0.43770    0.61570    1.000
    H99      H        0.17030    0.20710    0.71160    1.000
    H100     H        0.06340    0.30530    0.76000    1.000
    C101     C        0.20630    0.17190    0.59584    1.000
    C102     C        0.35490    0.25490    0.62216    1.000
    C103     C        0.40880    0.19670    0.58865    1.000
    H101     H        0.48010    0.20390    0.58770    1.000
    C104     C        0.26530    0.11810    0.56299    1.000
    H102     H        0.23390    0.06920    0.54290    1.000
    H103     H        0.38980    0.30070    0.64270    1.000
    H104     H        0.13600    0.15930    0.59840    1.000
    C105     C        0.84670    0.72660    0.70143    1.000
    C106     C        0.90950    0.66730    0.73092    1.000
    C107     C        0.83190    0.58970    0.64494    1.000
    C108     C        0.89220    0.53110    0.67453    1.000
    H105     H        0.90680    0.46370    0.66510    1.000
    H106     H        0.80550    0.56230    0.61570    1.000
    H107     H        0.82970    0.79290    0.71160    1.000
    H108     H        0.93660    0.69470    0.76000    1.000
    C109     C        0.79370    0.82810    0.59584    1.000
    C110     C        0.64510    0.74510    0.62216    1.000
    C111     C        0.59120    0.80330    0.58865    1.000
    H109     H        0.51990    0.79610    0.58770    1.000
    C112     C        0.73470    0.88190    0.56299    1.000
    H110     H        0.76610    0.93080    0.54290    1.000
    H111     H        0.61020    0.69930    0.64270    1.000
    H112     H        0.86400    0.84070    0.59840    1.000
    C113     C        0.77340    0.34670    0.20143    1.000
    C114     C        0.83270    0.40950    0.23092    1.000
    C115     C        0.91030    0.33190    0.14494    1.000
    C116     C        0.96890    0.39220    0.17453    1.000
    H113     H        0.03630    0.40680    0.16510    1.000
    H114     H        0.93770    0.30550    0.11570    1.000
    H115     H        0.70710    0.32970    0.21160    1.000
    H116     H        0.80530    0.43660    0.26000    1.000
    C117     C        0.67190    0.29370    0.09584    1.000
    C118     C        0.75490    0.14510    0.12216    1.000
    C119     C        0.69670    0.09120    0.08865    1.000
    H117     H        0.70390    0.01990    0.08770    1.000
    C120     C        0.61810    0.23470    0.06299    1.000
    H118     H        0.56920    0.26610    0.04290    1.000
    H119     H        0.80070    0.11020    0.14270    1.000
    H120     H        0.65930    0.36400    0.09840    1.000
    C121     C        0.22660    0.65330    0.20143    1.000
    C122     C        0.16730    0.59050    0.23092    1.000
    C123     C        0.08970    0.66810    0.14494    1.000
    C124     C        0.03110    0.60780    0.17453    1.000
    H121     H        0.96370    0.59320    0.16510    1.000
    H122     H        0.06230    0.69450    0.11570    1.000
    H123     H        0.29290    0.67030    0.21160    1.000
    H124     H        0.19470    0.56340    0.26000    1.000
    C125     C        0.32810    0.70630    0.09584    1.000
    C126     C        0.24510    0.85490    0.12216    1.000
    C127     C        0.30330    0.90880    0.08865    1.000
    H125     H        0.29610    0.98010    0.08770    1.000
    C128     C        0.38190    0.76530    0.06299    1.000
    H126     H        0.43080    0.73390    0.04290    1.000
    H127     H        0.19930    0.88980    0.14270    1.000
    H128     H        0.34070    0.63600    0.09840    1.000
    C129     C        0.00000    0.50000    0.25000    1.000
    C130     C        0.00000    0.50000    0.75000    1.000
    C131     C        0.06778    0.56778    0.21761    1.000
    C132     C        0.25370    0.75370    0.12558    1.000
    C133     C        0.19079    0.69079    0.15814    1.000
    N1       N        0.36674    0.86674    0.05872    1.000
    C134     C        0.93222    0.43222    0.21761    1.000
    C135     C        0.74630    0.24630    0.12558    1.000
    C136     C        0.80921    0.30921    0.15814    1.000
    N2       N        0.63326    0.13326    0.05872    1.000
    C137     C        0.06778    0.43222    0.71761    1.000
    C138     C        0.25370    0.24630    0.62558    1.000
    C139     C        0.19079    0.30921    0.65814    1.000
    N3       N        0.36674    0.13326    0.55872    1.000
    C140     C        0.93222    0.56778    0.28239    1.000
    C141     C        0.74630    0.75370    0.37442    1.000
    C142     C        0.80921    0.69079    0.34186    1.000
    N4       N        0.63326    0.86674    0.44128    1.000
    C143     C        0.06778    0.43222    0.28239    1.000
    C144     C        0.25370    0.24630    0.37442    1.000
    C145     C        0.19079    0.30921    0.34186    1.000
    N5       N        0.36674    0.13326    0.44128    1.000
    C146     C        0.93222    0.43222    0.78239    1.000
    C147     C        0.74630    0.24630    0.87442    1.000
    C148     C        0.80921    0.30921    0.84186    1.000
    N6       N        0.63326    0.13326    0.94128    1.000
    C149     C        0.06778    0.56778    0.78239    1.000
    C150     C        0.25370    0.75370    0.87442    1.000
    C151     C        0.19079    0.69079    0.84186    1.000
    N7       N        0.36674    0.86674    0.94128    1.000
    C152     C        0.93222    0.56778    0.71761    1.000
    C153     C        0.74630    0.75370    0.62558    1.000
    C154     C        0.80921    0.69079    0.65814    1.000
    N8       N        0.63326    0.86674    0.55872    1.000
    Cu1      Cu       0.43382    0.93382    0.00000    1.000
    Cu2      Cu       0.56618    0.06618    0.00000    1.000
    Cu3      Cu       0.43382    0.06618    0.50000    1.000
    Cu4      Cu       0.56618    0.93382    0.50000    1.000
    I1       I        0.37581    0.12419    0.00000    1.000
    I2       I        0.62419    0.87581    0.00000    1.000
    I3       I        0.62419    0.12419    0.50000    1.000
    I4       I        0.37581    0.87581    0.50000    1.000
    C155     C        0.65330    0.22660    0.70143    1.000
    C156     C        0.59050    0.16730    0.73092    1.000
    C157     C        0.66810    0.08970    0.64494    1.000
    C158     C        0.60780    0.03110    0.67453    1.000
    H129     H        0.59320    0.96370    0.66510    1.000
    H130     H        0.69450    0.06230    0.61570    1.000
    H131     H        0.67030    0.29290    0.71160    1.000
    H132     H        0.56340    0.19470    0.76000    1.000
    C159     C        0.70630    0.32810    0.59584    1.000
    C160     C        0.85490    0.24510    0.62216    1.000
    C161     C        0.90880    0.30330    0.58865    1.000
    H133     H        0.98010    0.29610    0.58770    1.000
    C162     C        0.76530    0.38190    0.56299    1.000
    H134     H        0.73390    0.43080    0.54290    1.000
    H135     H        0.88980    0.19930    0.64270    1.000
    H136     H        0.63600    0.34070    0.59840    1.000
    C163     C        0.34670    0.77340    0.70143    1.000
    C164     C        0.40950    0.83270    0.73092    1.000
    C165     C        0.33190    0.91030    0.64494    1.000
    C166     C        0.39220    0.96890    0.67453    1.000
    H137     H        0.40680    0.03630    0.66510    1.000
    H138     H        0.30550    0.93770    0.61570    1.000
    H139     H        0.32970    0.70710    0.71160    1.000
    H140     H        0.43660    0.80530    0.76000    1.000
    C167     C        0.29370    0.67190    0.59584    1.000
    C168     C        0.14510    0.75490    0.62216    1.000
    C169     C        0.09120    0.69670    0.58865    1.000
    H141     H        0.01990    0.70390    0.58770    1.000
    C170     C        0.23470    0.61810    0.56299    1.000
    H142     H        0.26610    0.56920    0.54290    1.000
    H143     H        0.11020    0.80070    0.64270    1.000
    H144     H        0.36400    0.65930    0.59840    1.000
    C171     C        0.27340    0.15330    0.20143    1.000
    C172     C        0.33270    0.09050    0.23092    1.000
    C173     C        0.41030    0.16810    0.14494    1.000
    C174     C        0.46890    0.10780    0.17453    1.000
    H145     H        0.53630    0.09320    0.16510    1.000
    H146     H        0.43770    0.19450    0.11570    1.000
    H147     H        0.20710    0.17030    0.21160    1.000
    H148     H        0.30530    0.06340    0.26000    1.000
    C175     C        0.17190    0.20630    0.09584    1.000
    C176     C        0.25490    0.35490    0.12216    1.000
    C177     C        0.19670    0.40880    0.08865    1.000
    H149     H        0.20390    0.48010    0.08770    1.000
    C178     C        0.11810    0.26530    0.06299    1.000
    H150     H        0.06920    0.23390    0.04290    1.000
    H151     H        0.30070    0.38980    0.14270    1.000
    H152     H        0.15930    0.13600    0.09840    1.000
    C179     C        0.72660    0.84670    0.20143    1.000
    C180     C        0.66730    0.90950    0.23092    1.000
    C181     C        0.58970    0.83190    0.14494    1.000
    C182     C        0.53110    0.89220    0.17453    1.000
    H153     H        0.46370    0.90680    0.16510    1.000
    H154     H        0.56230    0.80550    0.11570    1.000
    H155     H        0.79290    0.82970    0.21160    1.000
    H156     H        0.69470    0.93660    0.26000    1.000
    C183     C        0.82810    0.79370    0.09584    1.000
    C184     C        0.74510    0.64510    0.12216    1.000
    C185     C        0.80330    0.59120    0.08865    1.000
    H157     H        0.79610    0.51990    0.08770    1.000
    C186     C        0.88190    0.73470    0.06299    1.000
    H158     H        0.93080    0.76610    0.04290    1.000
    H159     H        0.69930    0.61020    0.14270    1.000
    H160     H        0.84070    0.86400    0.09840    1.000
    C187     C        0.34670    0.22660    0.79857    1.000
    C188     C        0.40950    0.16730    0.76908    1.000
    C189     C        0.33190    0.08970    0.85506    1.000
    C190     C        0.39220    0.03110    0.82547    1.000
    H161     H        0.40680    0.96370    0.83490    1.000
    H162     H        0.30550    0.06230    0.88430    1.000
    H163     H        0.32970    0.29290    0.78840    1.000
    H164     H        0.43660    0.19470    0.74000    1.000
    C191     C        0.29370    0.32810    0.90416    1.000
    C192     C        0.14510    0.24510    0.87784    1.000
    C193     C        0.09120    0.30330    0.91135    1.000
    H165     H        0.01990    0.29610    0.91230    1.000
    C194     C        0.23470    0.38190    0.93701    1.000
    H166     H        0.26610    0.43080    0.95710    1.000
    H167     H        0.11020    0.19930    0.85730    1.000
    H168     H        0.36400    0.34070    0.90160    1.000
    C195     C        0.65330    0.77340    0.79857    1.000
    C196     C        0.59050    0.83270    0.76908    1.000
    C197     C        0.66810    0.91030    0.85506    1.000
    C198     C        0.60780    0.96890    0.82547    1.000
    H169     H        0.59320    0.03630    0.83490    1.000
    H170     H        0.69450    0.93770    0.88430    1.000
    H171     H        0.67030    0.70710    0.78840    1.000
    H172     H        0.56340    0.80530    0.74000    1.000
    C199     C        0.70630    0.67190    0.90416    1.000
    C200     C        0.85490    0.75490    0.87784    1.000
    C201     C        0.90880    0.69670    0.91135    1.000
    H173     H        0.98010    0.70390    0.91230    1.000
    C202     C        0.76530    0.61810    0.93701    1.000
    H174     H        0.73390    0.56920    0.95710    1.000
    H175     H        0.88980    0.80070    0.85730    1.000
    H176     H        0.63600    0.65930    0.90160    1.000
    C203     C        0.72660    0.15330    0.29857    1.000
    C204     C        0.66730    0.09050    0.26908    1.000
    C205     C        0.58970    0.16810    0.35506    1.000
    C206     C        0.53110    0.10780    0.32547    1.000
    H177     H        0.46370    0.09320    0.33490    1.000
    H178     H        0.56230    0.19450    0.38430    1.000
    H179     H        0.79290    0.17030    0.28840    1.000
    H180     H        0.69470    0.06340    0.24000    1.000
    C207     C        0.82810    0.20630    0.40416    1.000
    C208     C        0.74510    0.35490    0.37784    1.000
    C209     C        0.80330    0.40880    0.41135    1.000
    H181     H        0.79610    0.48010    0.41230    1.000
    C210     C        0.88190    0.26530    0.43701    1.000
    H182     H        0.93080    0.23390    0.45710    1.000
    H183     H        0.69930    0.38980    0.35730    1.000
    H184     H        0.84070    0.13600    0.40160    1.000
    C211     C        0.27340    0.84670    0.29857    1.000
    C212     C        0.33270    0.90950    0.26908    1.000
    C213     C        0.41030    0.83190    0.35506    1.000
    C214     C        0.46890    0.89220    0.32547    1.000
    H185     H        0.53630    0.90680    0.33490    1.000
    H186     H        0.43770    0.80550    0.38430    1.000
    H187     H        0.20710    0.82970    0.28840    1.000
    H188     H        0.30530    0.93660    0.24000    1.000
    C215     C        0.17190    0.79370    0.40416    1.000
    C216     C        0.25490    0.64510    0.37784    1.000
    C217     C        0.19670    0.59120    0.41135    1.000
    H189     H        0.20390    0.51990    0.41230    1.000
    C218     C        0.11810    0.73470    0.43701    1.000
    H190     H        0.06920    0.76610    0.45710    1.000
    H191     H        0.30070    0.61020    0.35730    1.000
    H192     H        0.15930    0.86400    0.40160    1.000
    C219     C        0.34670    0.77340    0.29857    1.000
    C220     C        0.40950    0.83270    0.26908    1.000
    C221     C        0.33190    0.91030    0.35506    1.000
    C222     C        0.39220    0.96890    0.32547    1.000
    H193     H        0.40680    0.03630    0.33490    1.000
    H194     H        0.30550    0.93770    0.38430    1.000
    H195     H        0.32970    0.70710    0.28840    1.000
    H196     H        0.43660    0.80530    0.24000    1.000
    C223     C        0.29370    0.67190    0.40416    1.000
    C224     C        0.14510    0.75490    0.37784    1.000
    C225     C        0.09120    0.69670    0.41135    1.000
    H197     H        0.01990    0.70390    0.41230    1.000
    C226     C        0.23470    0.61810    0.43701    1.000
    H198     H        0.26610    0.56920    0.45710    1.000
    H199     H        0.11020    0.80070    0.35730    1.000
    H200     H        0.36400    0.65930    0.40160    1.000
    C227     C        0.65330    0.22660    0.29857    1.000
    C228     C        0.59050    0.16730    0.26908    1.000
    C229     C        0.66810    0.08970    0.35506    1.000
    C230     C        0.60780    0.03110    0.32547    1.000
    H201     H        0.59320    0.96370    0.33490    1.000
    H202     H        0.69450    0.06230    0.38430    1.000
    H203     H        0.67030    0.29290    0.28840    1.000
    H204     H        0.56340    0.19470    0.24000    1.000
    C231     C        0.70630    0.32810    0.40416    1.000
    C232     C        0.85490    0.24510    0.37784    1.000
    C233     C        0.90880    0.30330    0.41135    1.000
    H205     H        0.98010    0.29610    0.41230    1.000
    C234     C        0.76530    0.38190    0.43701    1.000
    H206     H        0.73390    0.43080    0.45710    1.000
    H207     H        0.88980    0.19930    0.35730    1.000
    H208     H        0.63600    0.34070    0.40160    1.000
    C235     C        0.72660    0.84670    0.79857    1.000
    C236     C        0.66730    0.90950    0.76908    1.000
    C237     C        0.58970    0.83190    0.85506    1.000
    C238     C        0.53110    0.89220    0.82547    1.000
    H209     H        0.46370    0.90680    0.83490    1.000
    H210     H        0.56230    0.80550    0.88430    1.000
    H211     H        0.79290    0.82970    0.78840    1.000
    H212     H        0.69470    0.93660    0.74000    1.000
    C239     C        0.82810    0.79370    0.90416    1.000
    C240     C        0.74510    0.64510    0.87784    1.000
    C241     C        0.80330    0.59120    0.91135    1.000
    H213     H        0.79610    0.51990    0.91230    1.000
    C242     C        0.88190    0.73470    0.93701    1.000
    H214     H        0.93080    0.76610    0.95710    1.000
    H215     H        0.69930    0.61020    0.85730    1.000
    H216     H        0.84070    0.86400    0.90160    1.000
    C243     C        0.27340    0.15330    0.79857    1.000
    C244     C        0.33270    0.09050    0.76908    1.000
    C245     C        0.41030    0.16810    0.85506    1.000
    C246     C        0.46890    0.10780    0.82547    1.000
    H217     H        0.53630    0.09320    0.83490    1.000
    H218     H        0.43770    0.19450    0.88430    1.000
    H219     H        0.20710    0.17030    0.78840    1.000
    H220     H        0.30530    0.06340    0.74000    1.000
    C247     C        0.17190    0.20630    0.90416    1.000
    C248     C        0.25490    0.35490    0.87784    1.000
    C249     C        0.19670    0.40880    0.91135    1.000
    H221     H        0.20390    0.48010    0.91230    1.000
    C250     C        0.11810    0.26530    0.93701    1.000
    H222     H        0.06920    0.23390    0.95710    1.000
    H223     H        0.30070    0.38980    0.85730    1.000
    H224     H        0.15930    0.13600    0.90160    1.000
    C251     C        0.65330    0.77340    0.20143    1.000
    C252     C        0.59050    0.83270    0.23092    1.000
    C253     C        0.66810    0.91030    0.14494    1.000
    C254     C        0.60780    0.96890    0.17453    1.000
    H225     H        0.59320    0.03630    0.16510    1.000
    H226     H        0.69450    0.93770    0.11570    1.000
    H227     H        0.67030    0.70710    0.21160    1.000
    H228     H        0.56340    0.80530    0.26000    1.000
    C255     C        0.70630    0.67190    0.09584    1.000
    C256     C        0.85490    0.75490    0.12216    1.000
    C257     C        0.90880    0.69670    0.08865    1.000
    H229     H        0.98010    0.70390    0.08770    1.000
    C258     C        0.76530    0.61810    0.06299    1.000
    H230     H        0.73390    0.56920    0.04290    1.000
    H231     H        0.88980    0.80070    0.14270    1.000
    H232     H        0.63600    0.65930    0.09840    1.000
    C259     C        0.34670    0.22660    0.20143    1.000
    C260     C        0.40950    0.16730    0.23092    1.000
    C261     C        0.33190    0.08970    0.14494    1.000
    C262     C        0.39220    0.03110    0.17453    1.000
    H233     H        0.40680    0.96370    0.16510    1.000
    H234     H        0.30550    0.06230    0.11570    1.000
    H235     H        0.32970    0.29290    0.21160    1.000
    H236     H        0.43660    0.19470    0.26000    1.000
    C263     C        0.29370    0.32810    0.09584    1.000
    C264     C        0.14510    0.24510    0.12216    1.000
    C265     C        0.09120    0.30330    0.08865    1.000
    H237     H        0.01990    0.29610    0.08770    1.000
    C266     C        0.23470    0.38190    0.06299    1.000
    H238     H        0.26610    0.43080    0.04290    1.000
    H239     H        0.11020    0.19930    0.14270    1.000
    H240     H        0.36400    0.34070    0.09840    1.000
    C267     C        0.27340    0.84670    0.70143    1.000
    C268     C        0.33270    0.90950    0.73092    1.000
    C269     C        0.41030    0.83190    0.64494    1.000
    C270     C        0.46890    0.89220    0.67453    1.000
    H241     H        0.53630    0.90680    0.66510    1.000
    H242     H        0.43770    0.80550    0.61570    1.000
    H243     H        0.20710    0.82970    0.71160    1.000
    H244     H        0.30530    0.93660    0.76000    1.000
    C271     C        0.17190    0.79370    0.59584    1.000
    C272     C        0.25490    0.64510    0.62216    1.000
    C273     C        0.19670    0.59120    0.58865    1.000
    H245     H        0.20390    0.51990    0.58770    1.000
    C274     C        0.11810    0.73470    0.56299    1.000
    H246     H        0.06920    0.76610    0.54290    1.000
    H247     H        0.30070    0.61020    0.64270    1.000
    H248     H        0.15930    0.86400    0.59840    1.000
    C275     C        0.72660    0.15330    0.70143    1.000
    C276     C        0.66730    0.09050    0.73092    1.000
    C277     C        0.58970    0.16810    0.64494    1.000
    C278     C        0.53110    0.10780    0.67453    1.000
    H249     H        0.46370    0.09320    0.66510    1.000
    H250     H        0.56230    0.19450    0.61570    1.000
    H251     H        0.79290    0.17030    0.71160    1.000
    H252     H        0.69470    0.06340    0.76000    1.000
    C279     C        0.82810    0.20630    0.59584    1.000
    C280     C        0.74510    0.35490    0.62216    1.000
    C281     C        0.80330    0.40880    0.58865    1.000
    H253     H        0.79610    0.48010    0.58770    1.000
    C282     C        0.88190    0.26530    0.56299    1.000
    H254     H        0.93080    0.23390    0.54290    1.000
    H255     H        0.69930    0.38980    0.64270    1.000
    H256     H        0.84070    0.13600    0.59840    1.000
    C283     C        0.50000    0.00000    0.25000    1.000
    C284     C        0.50000    0.00000    0.75000    1.000
    C285     C        0.43222    0.06778    0.21761    1.000
    C286     C        0.24630    0.25370    0.12558    1.000
    C287     C        0.30921    0.19079    0.15814    1.000
    N9       N        0.13326    0.36674    0.05872    1.000
    C288     C        0.56778    0.93222    0.21761    1.000
    C289     C        0.75370    0.74630    0.12558    1.000
    C290     C        0.69079    0.80921    0.15814    1.000
    N10      N        0.86674    0.63326    0.05872    1.000
    C291     C        0.56778    0.06778    0.28239    1.000
    C292     C        0.75370    0.25370    0.37442    1.000
    C293     C        0.69079    0.19079    0.34186    1.000
    N11      N        0.86674    0.36674    0.44128    1.000
    C294     C        0.43222    0.93222    0.28239    1.000
    C295     C        0.24630    0.74630    0.37442    1.000
    C296     C        0.30921    0.80921    0.34186    1.000
    N12      N        0.13326    0.63326    0.44128    1.000
    C297     C        0.56778    0.93222    0.78239    1.000
    C298     C        0.75370    0.74630    0.87442    1.000
    C299     C        0.69079    0.80921    0.84186    1.000
    N13      N        0.86674    0.63326    0.94128    1.000
    C300     C        0.43222    0.06778    0.78239    1.000
    C301     C        0.24630    0.25370    0.87442    1.000
    C302     C        0.30921    0.19079    0.84186    1.000
    N14      N        0.13326    0.36674    0.94128    1.000
    C303     C        0.43222    0.93222    0.71761    1.000
    C304     C        0.24630    0.74630    0.62558    1.000
    C305     C        0.30921    0.80921    0.65814    1.000
    N15      N        0.13326    0.63326    0.55872    1.000
    C306     C        0.56778    0.06778    0.71761    1.000
    C307     C        0.75370    0.25370    0.62558    1.000
    C308     C        0.69079    0.19079    0.65814    1.000
    N16      N        0.86674    0.36674    0.55872    1.000
    Cu5      Cu       0.06618    0.43382    0.00000    1.000
    Cu6      Cu       0.93382    0.56618    0.00000    1.000
    Cu7      Cu       0.93382    0.43382    0.50000    1.000
    Cu8      Cu       0.06618    0.56618    0.50000    1.000
    I5       I        0.12419    0.37581    0.50000    1.000
    I6       I        0.87581    0.37581    0.00000    1.000
    I7       I        0.12419    0.62419    0.00000    1.000
    I8       I        0.87581    0.62419    0.50000    1.000
