# CIF file generated by openbabel 3.1.0, see https://openbabel.org
data_I
_chemical_name_common 'image0'
_cell_length_a 8.8056
_cell_length_b 17.5516
_cell_length_c 13.9196
_cell_angle_alpha 90
_cell_angle_beta 126.483
_cell_angle_gamma 90
_space_group_name_H-M_alt 'P 1'
_space_group_name_Hall 'P 1'
loop_
    _symmetry_equiv_pos_as_xyz
    x,y,z
loop_
    _atom_site_label
    _atom_site_type_symbol
    _atom_site_fract_x
    _atom_site_fract_y
    _atom_site_fract_z
    _atom_site_occupancy
    Cd1      Cd       0.38851    0.54739    0.34290    1.000
    C1       C        0.53350    0.68280    0.15740    1.000
    C2       C        0.53500    0.76100    0.16150    1.000
    H1       H        0.50720    0.78590    0.20840    1.000
    C3       C        0.57800    0.80310    0.09570    1.000
    C4       C        0.61220    0.76580    0.02300    1.000
    H2       H        0.63930    0.79370    0.97800    1.000
    C5       C        0.60650    0.68760    0.01680    1.000
    C6       C        0.57200    0.64530    0.08570    1.000
    H3       H        0.57450    0.59230    0.08440    1.000
    C7       C        0.48370    0.63500    0.22570    1.000
    C8       C        0.58570    0.88850    0.10110    1.000
    C9       C        0.62480    0.57670    0.92300    1.000
    H4       H        0.61240    0.56340    0.85100    1.000
    H5       H        0.51490    0.55750    0.91550    1.000
    C10      C        0.96390    0.46990    0.17020    1.000
    H6       H        0.00350    0.43130    0.22620    1.000
    C11      C        0.97270    0.56220    0.08270    1.000
    H7       H        0.01320    0.60310    0.06090    1.000
    N1       N        0.79430    0.54220    0.02590    1.000
    N2       N        0.78390    0.48150    0.08210    1.000
    N3       N        0.08550    0.51760    0.17320    1.000
    O1       O        0.53770    0.56800    0.24950    1.000
    O2       O        0.38900    0.66480    0.25460    1.000
    O3       O        0.55960    0.92120    0.16970    1.000
    O4       O        0.62360    0.92508    0.03970    1.000
    O5       O        0.63480    0.65637    0.93670    1.000
    Cd2      Cd       0.61149    0.04739    0.15710    1.000
    C12      C        0.46650    0.18280    0.34260    1.000
    C13      C        0.46500    0.26100    0.33850    1.000
    H8       H        0.49280    0.28590    0.29160    1.000
    C14      C        0.42200    0.30310    0.40430    1.000
    C15      C        0.38780    0.26580    0.47700    1.000
    H9       H        0.36070    0.29370    0.52200    1.000
    C16      C        0.39350    0.18760    0.48320    1.000
    C17      C        0.42800    0.14530    0.41430    1.000
    H10      H        0.42550    0.09230    0.41560    1.000
    C18      C        0.51630    0.13500    0.27430    1.000
    C19      C        0.41430    0.38850    0.39890    1.000
    C20      C        0.37520    0.07670    0.57700    1.000
    H11      H        0.38760    0.06340    0.64900    1.000
    H12      H        0.48510    0.05750    0.58450    1.000
    C21      C        0.03610    0.96990    0.32980    1.000
    H13      H        0.99650    0.93130    0.27380    1.000
    C22      C        0.02730    0.06220    0.41730    1.000
    H14      H        0.98680    0.10310    0.43910    1.000
    N4       N        0.20570    0.04220    0.47410    1.000
    N5       N        0.21610    0.98150    0.41790    1.000
    N6       N        0.91450    0.01760    0.32680    1.000
    O6       O        0.46230    0.06800    0.25050    1.000
    O7       O        0.61100    0.16480    0.24540    1.000
    O8       O        0.44040    0.42120    0.33030    1.000
    O9       O        0.37640    0.42508    0.46030    1.000
    O10      O        0.36520    0.15637    0.56330    1.000
    Cd3      Cd       0.61149    0.45261    0.65710    1.000
    C23      C        0.46650    0.31720    0.84260    1.000
    C24      C        0.46500    0.23900    0.83850    1.000
    H15      H        0.49280    0.21410    0.79160    1.000
    C25      C        0.42200    0.19690    0.90430    1.000
    C26      C        0.38780    0.23420    0.97700    1.000
    H16      H        0.36070    0.20630    0.02200    1.000
    C27      C        0.39350    0.31240    0.98320    1.000
    C28      C        0.42800    0.35470    0.91430    1.000
    H17      H        0.42550    0.40770    0.91560    1.000
    C29      C        0.51630    0.36500    0.77430    1.000
    C30      C        0.41430    0.11150    0.89890    1.000
    C31      C        0.37520    0.42330    0.07700    1.000
    H18      H        0.38760    0.43660    0.14900    1.000
    H19      H        0.48510    0.44250    0.08450    1.000
    C32      C        0.03610    0.53010    0.82980    1.000
    H20      H        0.99650    0.56870    0.77380    1.000
    C33      C        0.02730    0.43780    0.91730    1.000
    H21      H        0.98680    0.39690    0.93910    1.000
    N7       N        0.20570    0.45780    0.97410    1.000
    N8       N        0.21610    0.51850    0.91790    1.000
    N9       N        0.91450    0.48240    0.82680    1.000
    O11      O        0.46230    0.43200    0.75050    1.000
    O12      O        0.61100    0.33520    0.74540    1.000
    O13      O        0.44040    0.07880    0.83030    1.000
    O14      O        0.37640    0.07492    0.96030    1.000
    O15      O        0.36520    0.34363    0.06330    1.000
    Cd4      Cd       0.38851    0.95261    0.84290    1.000
    C34      C        0.53350    0.81720    0.65740    1.000
    C35      C        0.53500    0.73900    0.66150    1.000
    H22      H        0.50720    0.71410    0.70840    1.000
    C36      C        0.57800    0.69690    0.59570    1.000
    C37      C        0.61220    0.73420    0.52300    1.000
    H23      H        0.63930    0.70630    0.47800    1.000
    C38      C        0.60650    0.81240    0.51680    1.000
    C39      C        0.57200    0.85470    0.58570    1.000
    H24      H        0.57450    0.90770    0.58440    1.000
    C40      C        0.48370    0.86500    0.72570    1.000
    C41      C        0.58570    0.61150    0.60110    1.000
    C42      C        0.62480    0.92330    0.42300    1.000
    H25      H        0.61240    0.93660    0.35100    1.000
    H26      H        0.51490    0.94250    0.41550    1.000
    C43      C        0.96390    0.03010    0.67020    1.000
    H27      H        0.00350    0.06870    0.72620    1.000
    C44      C        0.97270    0.93780    0.58270    1.000
    H28      H        0.01320    0.89690    0.56090    1.000
    N10      N        0.79430    0.95780    0.52590    1.000
    N11      N        0.78390    0.01850    0.58210    1.000
    N12      N        0.08550    0.98240    0.67320    1.000
    O16      O        0.53770    0.93200    0.74950    1.000
    O17      O        0.38900    0.83520    0.75460    1.000
    O18      O        0.55960    0.57880    0.66970    1.000
    O19      O        0.62360    0.57492    0.53970    1.000
    O20      O        0.63480    0.84363    0.43670    1.000
