# CIF file generated by openbabel 3.1.0, see https://openbabel.org
data_I
_chemical_name_common 'image0'
_cell_length_a 13.9538
_cell_length_b 13.9538
_cell_length_c 24.9246
_cell_angle_alpha 90
_cell_angle_beta 90
_cell_angle_gamma 120
_space_group_name_H-M_alt 'P 1'
_space_group_name_Hall 'P 1'
loop_
    _symmetry_equiv_pos_as_xyz
    x,y,z
loop_
    _atom_site_label
    _atom_site_type_symbol
    _atom_site_fract_x
    _atom_site_fract_y
    _atom_site_fract_z
    _atom_site_occupancy
    Zn1      Zn       0.14997    0.69248    0.04676    1.000
    O1       O        0.00290    0.61280    0.10615    1.000
    O2       O        0.97730    0.60600    0.02073    1.000
    O3       O        0.29670    0.69180    0.07393    1.000
    O4       O        0.16100    0.54670    0.03872    1.000
    O5       O        0.12890    0.84960    0.16232    1.000
    O6       O        0.20580    0.83320    0.08817    1.000
    N1       N        0.47480    0.35250    0.10448    1.000
    N2       N        0.20380    0.76830    0.97348    1.000
    N3       N        0.30470    0.94910    0.83063    1.000
    C1       C        0.58960    0.40610    0.09372    1.000
    C2       C        0.66200    0.40390    0.13218    1.000
    H1       H        0.63450    0.36490    0.16400    1.000
    C3       C        0.77370    0.46000    0.12235    1.000
    H2       H        0.82180    0.45890    0.14790    1.000
    C4       C        0.81570    0.51780    0.07540    1.000
    C5       C        0.74460    0.51790    0.03729    1.000
    H3       H        0.77290    0.55530    0.00510    1.000
    C6       C        0.63180    0.46330    0.04600    1.000
    H4       H        0.58450    0.46480    0.02010    1.000
    C7       C        0.41790    0.41130    0.09403    1.000
    C8       C        0.46660    0.52170    0.10840    1.000
    H5       H        0.53490    0.55600    0.12560    1.000
    C9       C        0.41450    0.58030    0.09734    1.000
    H6       H        0.44830    0.65470    0.10670    1.000
    C10      C        0.31200    0.53040    0.07238    1.000
    C11      C        0.26370    0.41940    0.05866    1.000
    H7       H        0.19460    0.38460    0.04220    1.000
    C12      C        0.31530    0.36050    0.06875    1.000
    H8       H        0.28210    0.28640    0.05880    1.000
    C13      C        0.41530    0.23730    0.11480    1.000
    C14      C        0.32450    0.19420    0.14968    1.000
    H9       H        0.30870    0.24150    0.16910    1.000
    C15      C        0.25860    0.08110    0.15507    1.000
    H10      H        0.19820    0.05260    0.17820    1.000
    C16      C        0.28090    0.00960    0.12676    1.000
    C17      C        0.37480    0.05300    0.09571    1.000
    H11      H        0.39360    0.00550    0.07850    1.000
    C18      C        0.44190    0.16640    0.08970    1.000
    H12      H        0.50510    0.19440    0.06850    1.000
    C19      C        0.93780    0.58140    0.06600    1.000
    C20      C        0.25240    0.59280    0.06079    1.000
    C21      C        0.20010    0.88790    0.12560    1.000
    C22      C        0.29230    0.86940    0.97233    1.000
    H13      H        0.33130    0.89770    0.00410    1.000
    C23      C        0.32980    0.93480    0.92708    1.000
    H14      H        0.38990    0.00640    0.92840    1.000
    C24      C        0.27510    0.89030    0.88040    1.000
    C25      C        0.18900    0.78250    0.87948    1.000
    H15      H        0.15450    0.74940    0.84730    1.000
    C26      C        0.15520    0.72510    0.92655    1.000
    H16      H        0.09580    0.65300    0.92590    1.000
    Zn2      Zn       0.30752    0.45749    0.38010    1.000
    O7       O        0.38720    0.39010    0.43948    1.000
    O8       O        0.39400    0.37130    0.35406    1.000
    O9       O        0.30820    0.60490    0.40726    1.000
    O10      O        0.45330    0.61430    0.37205    1.000
    O11      O        0.15040    0.27930    0.49565    1.000
    O12      O        0.16680    0.37260    0.42150    1.000
    N4       N        0.64750    0.12230    0.43781    1.000
    N5       N        0.23170    0.43550    0.30681    1.000
    N6       N        0.05090    0.35560    0.16396    1.000
    C27      C        0.59390    0.18350    0.42705    1.000
    C28      C        0.59610    0.25810    0.46551    1.000
    H17      H        0.63510    0.26960    0.49733    1.000
    C29      C        0.54000    0.31370    0.45568    1.000
    H18      H        0.54110    0.36290    0.48123    1.000
    C30      C        0.48220    0.29790    0.40873    1.000
    C31      C        0.48210    0.22670    0.37062    1.000
    H19      H        0.44470    0.21760    0.33843    1.000
    C32      C        0.53670    0.16850    0.37933    1.000
    H20      H        0.53520    0.11970    0.35343    1.000
    C33      C        0.58870    0.00660    0.42736    1.000
    C34      C        0.47830    0.94490    0.44173    1.000
    H21      H        0.44400    0.97890    0.45893    1.000
    C35      C        0.41970    0.83420    0.43067    1.000
    H22      H        0.34530    0.79360    0.44003    1.000
    C36      C        0.46960    0.78160    0.40571    1.000
    C37      C        0.58060    0.84430    0.39199    1.000
    H23      H        0.61540    0.81000    0.37553    1.000
    C38      C        0.63950    0.95480    0.40208    1.000
    H24      H        0.71360    0.99570    0.39213    1.000
    C39      C        0.76270    0.17800    0.44813    1.000
    C40      C        0.80580    0.13030    0.48301    1.000
    H25      H        0.75850    0.06720    0.50243    1.000
    C41      C        0.91890    0.17750    0.48840    1.000
    H26      H        0.94740    0.14560    0.51153    1.000
    C42      C        0.99040    0.27130    0.46009    1.000
    C43      C        0.94700    0.32180    0.42904    1.000
    H27      H        0.99450    0.38810    0.41183    1.000
    C44      C        0.83360    0.27550    0.42303    1.000
    H28      H        0.80560    0.31070    0.40183    1.000
    C45      C        0.41860    0.35640    0.39933    1.000
    C46      C        0.40720    0.65960    0.39412    1.000
    C47      C        0.11210    0.31220    0.45893    1.000
    C48      C        0.13060    0.42290    0.30566    1.000
    H29      H        0.10230    0.43360    0.33743    1.000
    C49      C        0.06520    0.39500    0.26041    1.000
    H30      H        0.99360    0.38350    0.26173    1.000
    C50      C        0.10970    0.38480    0.21373    1.000
    C51      C        0.21750    0.40650    0.21281    1.000
    H31      H        0.25060    0.40510    0.18063    1.000
    C52      C        0.27490    0.43010    0.25988    1.000
    H32      H        0.34700    0.44280    0.25923    1.000
    Zn3      Zn       0.54251    0.85003    0.71343    1.000
    O13      O        0.60990    0.99710    0.77282    1.000
    O14      O        0.62870    0.02270    0.68740    1.000
    O15      O        0.39510    0.70330    0.74060    1.000
    O16      O        0.38570    0.83900    0.70539    1.000
    O17      O        0.72070    0.87110    0.82899    1.000
    O18      O        0.62740    0.79420    0.75484    1.000
    N7       N        0.87770    0.52520    0.77115    1.000
    N8       N        0.56450    0.79620    0.64015    1.000
    N9       N        0.64440    0.69530    0.49730    1.000
    C53      C        0.81650    0.41040    0.76039    1.000
    C54      C        0.74190    0.33800    0.79885    1.000
    H33      H        0.73040    0.36550    0.83067    1.000
    C55      C        0.68630    0.22630    0.78902    1.000
    H34      H        0.63710    0.17820    0.81457    1.000
    C56      C        0.70210    0.18430    0.74207    1.000
    C57      C        0.77330    0.25540    0.70396    1.000
    H35      H        0.78240    0.22710    0.67177    1.000
    C58      C        0.83150    0.36820    0.71267    1.000
    H36      H        0.88030    0.41550    0.68677    1.000
    C59      C        0.99340    0.58210    0.76070    1.000
    C60      C        0.05510    0.53340    0.77507    1.000
    H37      H        0.02110    0.46510    0.79227    1.000
    C61      C        0.16580    0.58550    0.76401    1.000
    H38      H        0.20640    0.55170    0.77337    1.000
    C62      C        0.21840    0.68800    0.73905    1.000
    C63      C        0.15570    0.73630    0.72533    1.000
    H39      H        0.19000    0.80540    0.70887    1.000
    C64      C        0.04520    0.68470    0.73542    1.000
    H40      H        0.00430    0.71790    0.72547    1.000
    C65      C        0.82200    0.58470    0.78147    1.000
    C66      C        0.86970    0.67550    0.81635    1.000
    H41      H        0.93280    0.69130    0.83577    1.000
    C67      C        0.82250    0.74140    0.82174    1.000
    H42      H        0.85440    0.80180    0.84487    1.000
    C68      C        0.72870    0.71910    0.79343    1.000
    C69      C        0.67820    0.62520    0.76238    1.000
    H43      H        0.61190    0.60640    0.74517    1.000
    C70      C        0.72450    0.55810    0.75637    1.000
    H44      H        0.68930    0.49490    0.73517    1.000
    C71      C        0.64360    0.06220    0.73267    1.000
    C72      C        0.34040    0.74760    0.72746    1.000
    C73      C        0.68780    0.79990    0.79227    1.000
    C74      C        0.57710    0.70770    0.63900    1.000
    H45      H        0.56640    0.66870    0.67077    1.000
    C75      C        0.60500    0.67020    0.59375    1.000
    H46      H        0.61650    0.61010    0.59507    1.000
    C76      C        0.61520    0.72490    0.54707    1.000
    C77      C        0.59350    0.81100    0.54615    1.000
    H47      H        0.59490    0.84550    0.51397    1.000
    C78      C        0.56990    0.84480    0.59322    1.000
    H48      H        0.55720    0.90420    0.59257    1.000
    Zn4      Zn       0.69248    0.14997    0.95324    1.000
    O19      O        0.61280    0.00290    0.89385    1.000
    O20      O        0.60600    0.97730    0.97927    1.000
    O21      O        0.69180    0.29670    0.92607    1.000
    O22      O        0.54670    0.16100    0.96128    1.000
    O23      O        0.84960    0.12890    0.83768    1.000
    O24      O        0.83320    0.20580    0.91183    1.000
    N10      N        0.35250    0.47480    0.89552    1.000
    N11      N        0.76830    0.20380    0.02652    1.000
    N12      N        0.94910    0.30470    0.16937    1.000
    C79      C        0.40610    0.58960    0.90628    1.000
    C80      C        0.40390    0.66200    0.86782    1.000
    H49      H        0.36490    0.63450    0.83600    1.000
    C81      C        0.46000    0.77370    0.87765    1.000
    H50      H        0.45890    0.82180    0.85210    1.000
    C82      C        0.51780    0.81570    0.92460    1.000
    C83      C        0.51790    0.74460    0.96271    1.000
    H51      H        0.55530    0.77290    0.99490    1.000
    C84      C        0.46330    0.63180    0.95400    1.000
    H52      H        0.46480    0.58450    0.97990    1.000
    C85      C        0.41130    0.41790    0.90597    1.000
    C86      C        0.52170    0.46660    0.89160    1.000
    H53      H        0.55600    0.53490    0.87440    1.000
    C87      C        0.58030    0.41450    0.90266    1.000
    H54      H        0.65470    0.44830    0.89330    1.000
    C88      C        0.53040    0.31200    0.92762    1.000
    C89      C        0.41940    0.26370    0.94134    1.000
    H55      H        0.38460    0.19460    0.95780    1.000
    C90      C        0.36050    0.31530    0.93125    1.000
    H56      H        0.28640    0.28210    0.94120    1.000
    C91      C        0.23730    0.41530    0.88520    1.000
    C92      C        0.19420    0.32450    0.85032    1.000
    H57      H        0.24150    0.30870    0.83090    1.000
    C93      C        0.08110    0.25860    0.84493    1.000
    H58      H        0.05260    0.19820    0.82180    1.000
    C94      C        0.00960    0.28090    0.87324    1.000
    C95      C        0.05300    0.37480    0.90429    1.000
    H59      H        0.00550    0.39360    0.92150    1.000
    C96      C        0.16640    0.44190    0.91030    1.000
    H60      H        0.19440    0.50510    0.93150    1.000
    C97      C        0.58140    0.93780    0.93400    1.000
    C98      C        0.59280    0.25240    0.93921    1.000
    C99      C        0.88790    0.20010    0.87440    1.000
    C100     C        0.86940    0.29230    0.02767    1.000
    H61      H        0.89770    0.33130    0.99590    1.000
    C101     C        0.93480    0.32980    0.07292    1.000
    H62      H        0.00640    0.38990    0.07160    1.000
    C102     C        0.89030    0.27510    0.11960    1.000
    C103     C        0.78250    0.18900    0.12052    1.000
    H63      H        0.74940    0.15450    0.15270    1.000
    C104     C        0.72510    0.15520    0.07345    1.000
    H64      H        0.65300    0.09580    0.07410    1.000
    Zn5      Zn       0.45749    0.30752    0.61990    1.000
    O25      O        0.39010    0.38720    0.56052    1.000
    O26      O        0.37130    0.39400    0.64594    1.000
    O27      O        0.60490    0.30820    0.59274    1.000
    O28      O        0.61430    0.45330    0.62795    1.000
    O29      O        0.27930    0.15040    0.50435    1.000
    O30      O        0.37260    0.16680    0.57850    1.000
    N13      N        0.12230    0.64750    0.56219    1.000
    N14      N        0.43550    0.23170    0.69319    1.000
    N15      N        0.35560    0.05090    0.83604    1.000
    C105     C        0.18350    0.59390    0.57295    1.000
    C106     C        0.25810    0.59610    0.53449    1.000
    H65      H        0.26960    0.63510    0.50267    1.000
    C107     C        0.31370    0.54000    0.54432    1.000
    H66      H        0.36290    0.54110    0.51877    1.000
    C108     C        0.29790    0.48220    0.59127    1.000
    C109     C        0.22670    0.48210    0.62938    1.000
    H67      H        0.21760    0.44470    0.66157    1.000
    C110     C        0.16850    0.53670    0.62067    1.000
    H68      H        0.11970    0.53520    0.64657    1.000
    C111     C        0.00660    0.58870    0.57264    1.000
    C112     C        0.94490    0.47830    0.55827    1.000
    H69      H        0.97890    0.44400    0.54107    1.000
    C113     C        0.83420    0.41970    0.56933    1.000
    H70      H        0.79360    0.34530    0.55997    1.000
    C114     C        0.78160    0.46960    0.59429    1.000
    C115     C        0.84430    0.58060    0.60801    1.000
    H71      H        0.81000    0.61540    0.62447    1.000
    C116     C        0.95480    0.63950    0.59792    1.000
    H72      H        0.99570    0.71360    0.60787    1.000
    C117     C        0.17800    0.76270    0.55187    1.000
    C118     C        0.13030    0.80580    0.51699    1.000
    H73      H        0.06720    0.75850    0.49757    1.000
    C119     C        0.17750    0.91890    0.51160    1.000
    H74      H        0.14560    0.94740    0.48847    1.000
    C120     C        0.27130    0.99040    0.53991    1.000
    C121     C        0.32180    0.94700    0.57096    1.000
    H75      H        0.38810    0.99450    0.58817    1.000
    C122     C        0.27550    0.83360    0.57697    1.000
    H76      H        0.31070    0.80560    0.59817    1.000
    C123     C        0.35640    0.41860    0.60067    1.000
    C124     C        0.65960    0.40720    0.60588    1.000
    C125     C        0.31220    0.11210    0.54107    1.000
    C126     C        0.42290    0.13060    0.69434    1.000
    H77      H        0.43360    0.10230    0.66257    1.000
    C127     C        0.39500    0.06520    0.73959    1.000
    H78      H        0.38350    0.99360    0.73827    1.000
    C128     C        0.38480    0.10970    0.78627    1.000
    C129     C        0.40650    0.21750    0.78719    1.000
    H79      H        0.40510    0.25060    0.81937    1.000
    C130     C        0.43010    0.27490    0.74012    1.000
    H80      H        0.44280    0.34700    0.74077    1.000
    Zn6      Zn       0.85003    0.54251    0.28657    1.000
    O31      O        0.99710    0.60990    0.22718    1.000
    O32      O        0.02270    0.62870    0.31260    1.000
    O33      O        0.70330    0.39510    0.25940    1.000
    O34      O        0.83900    0.38570    0.29461    1.000
    O35      O        0.87110    0.72070    0.17101    1.000
    O36      O        0.79420    0.62740    0.24516    1.000
    N16      N        0.52520    0.87770    0.22885    1.000
    N17      N        0.79620    0.56450    0.35985    1.000
    N18      N        0.69530    0.64440    0.50270    1.000
    C131     C        0.41040    0.81650    0.23961    1.000
    C132     C        0.33800    0.74190    0.20115    1.000
    H81      H        0.36550    0.73040    0.16933    1.000
    C133     C        0.22630    0.68630    0.21098    1.000
    H82      H        0.17820    0.63710    0.18543    1.000
    C134     C        0.18430    0.70210    0.25793    1.000
    C135     C        0.25540    0.77330    0.29604    1.000
    H83      H        0.22710    0.78240    0.32823    1.000
    C136     C        0.36820    0.83150    0.28733    1.000
    H84      H        0.41550    0.88030    0.31323    1.000
    C137     C        0.58210    0.99340    0.23930    1.000
    C138     C        0.53340    0.05510    0.22493    1.000
    H85      H        0.46510    0.02110    0.20773    1.000
    C139     C        0.58550    0.16580    0.23599    1.000
    H86      H        0.55170    0.20640    0.22663    1.000
    C140     C        0.68800    0.21840    0.26095    1.000
    C141     C        0.73630    0.15570    0.27467    1.000
    H87      H        0.80540    0.19000    0.29113    1.000
    C142     C        0.68470    0.04520    0.26458    1.000
    H88      H        0.71790    0.00430    0.27453    1.000
    C143     C        0.58470    0.82200    0.21853    1.000
    C144     C        0.67550    0.86970    0.18365    1.000
    H89      H        0.69130    0.93280    0.16423    1.000
    C145     C        0.74140    0.82250    0.17826    1.000
    H90      H        0.80180    0.85440    0.15513    1.000
    C146     C        0.71910    0.72870    0.20657    1.000
    C147     C        0.62520    0.67820    0.23762    1.000
    H91      H        0.60640    0.61190    0.25483    1.000
    C148     C        0.55810    0.72450    0.24363    1.000
    H92      H        0.49490    0.68930    0.26483    1.000
    C149     C        0.06220    0.64360    0.26733    1.000
    C150     C        0.74760    0.34040    0.27254    1.000
    C151     C        0.79990    0.68780    0.20773    1.000
    C152     C        0.70770    0.57710    0.36100    1.000
    H93      H        0.66870    0.56640    0.32923    1.000
    C153     C        0.67020    0.60500    0.40625    1.000
    H94      H        0.61010    0.61650    0.40493    1.000
    C154     C        0.72490    0.61520    0.45293    1.000
    C155     C        0.81100    0.59350    0.45385    1.000
    H95      H        0.84550    0.59490    0.48603    1.000
    C156     C        0.84480    0.56990    0.40678    1.000
    H96      H        0.90420    0.55720    0.40743    1.000
    Zn7      Zn       0.00000    0.70335    0.16667    1.000
    Zn8      Zn       0.29665    0.29665    0.50000    1.000
    Zn9      Zn       0.70335    0.00000    0.83333    1.000
