# CIF file generated by openbabel 3.1.0, see https://openbabel.org
data_I
_chemical_name_common 'image0'
_cell_length_a 7.2642
_cell_length_b 15.0204
_cell_length_c 8.8286
_cell_angle_alpha 90
_cell_angle_beta 90
_cell_angle_gamma 90
_space_group_name_H-M_alt 'P 1'
_space_group_name_Hall 'P 1'
loop_
    _symmetry_equiv_pos_as_xyz
    x,y,z
loop_
    _atom_site_label
    _atom_site_type_symbol
    _atom_site_fract_x
    _atom_site_fract_y
    _atom_site_fract_z
    _atom_site_occupancy
    H1       H        0.25000    0.45450    0.67990    1.000
    O1       O        0.38190    0.41555    0.32490    1.000
    O2       O        0.08810    0.38390    0.37990    1.000
    O3       O        0.38600    0.29464    0.09950    1.000
    H2       H        0.48440    0.30690    0.14730    1.000
    C1       C        0.23570    0.37140    0.31180    1.000
    C2       C        0.23570    0.29260    0.20250    1.000
    H3       H        0.12130    0.29450    0.14380    1.000
    H4       H        0.25000    0.54550    0.67990    1.000
    O4       O        0.11810    0.58445    0.32490    1.000
    O5       O        0.41190    0.61610    0.37990    1.000
    O6       O        0.11400    0.70536    0.09950    1.000
    H5       H        0.01560    0.69310    0.14730    1.000
    C3       C        0.26430    0.62860    0.31180    1.000
    C4       C        0.26430    0.70740    0.20250    1.000
    H6       H        0.37870    0.70550    0.14380    1.000
    H7       H        0.25000    0.95450    0.82010    1.000
    O7       O        0.11810    0.91555    0.17510    1.000
    O8       O        0.41190    0.88390    0.12010    1.000
    O9       O        0.11400    0.79464    0.40050    1.000
    H8       H        0.01560    0.80690    0.35270    1.000
    C5       C        0.26430    0.87140    0.18820    1.000
    C6       C        0.26430    0.79260    0.29750    1.000
    H9       H        0.37870    0.79450    0.35620    1.000
    H10      H        0.25000    0.04550    0.82010    1.000
    O10      O        0.38190    0.08445    0.17510    1.000
    O11      O        0.08810    0.11610    0.12010    1.000
    O12      O        0.38600    0.20536    0.40050    1.000
    H11      H        0.48440    0.19310    0.35270    1.000
    C7       C        0.23570    0.12860    0.18820    1.000
    C8       C        0.23570    0.20740    0.29750    1.000
    H12      H        0.12130    0.20550    0.35620    1.000
    H13      H        0.75000    0.54550    0.32010    1.000
    O13      O        0.61810    0.58445    0.67510    1.000
    O14      O        0.91190    0.61610    0.62010    1.000
    O15      O        0.61400    0.70536    0.90050    1.000
    H14      H        0.51560    0.69310    0.85270    1.000
    C9       C        0.76430    0.62860    0.68820    1.000
    C10      C        0.76430    0.70740    0.79750    1.000
    H15      H        0.87870    0.70550    0.85620    1.000
    H16      H        0.75000    0.45450    0.32010    1.000
    O16      O        0.88190    0.41555    0.67510    1.000
    O17      O        0.58810    0.38390    0.62010    1.000
    O18      O        0.88600    0.29464    0.90050    1.000
    H17      H        0.98440    0.30690    0.85270    1.000
    C11      C        0.73570    0.37140    0.68820    1.000
    C12      C        0.73570    0.29260    0.79750    1.000
    H18      H        0.62130    0.29450    0.85620    1.000
    H19      H        0.75000    0.04550    0.17990    1.000
    O19      O        0.88190    0.08445    0.82490    1.000
    O20      O        0.58810    0.11610    0.87990    1.000
    O21      O        0.88600    0.20536    0.59950    1.000
    H20      H        0.98440    0.19310    0.64730    1.000
    C13      C        0.73570    0.12860    0.81180    1.000
    C14      C        0.73570    0.20740    0.70250    1.000
    H21      H        0.62130    0.20550    0.64380    1.000
    H22      H        0.75000    0.95450    0.17990    1.000
    O22      O        0.61810    0.91555    0.82490    1.000
    O23      O        0.91190    0.88390    0.87990    1.000
    O24      O        0.61400    0.79464    0.59950    1.000
    H23      H        0.51560    0.80690    0.64730    1.000
    C15      C        0.76430    0.87140    0.81180    1.000
    C16      C        0.76430    0.79260    0.70250    1.000
    H24      H        0.87870    0.79450    0.64380    1.000
    In1      In       0.50000    0.50000    0.50000    1.000
    In2      In       0.00000    0.50000    0.50000    1.000
    In3      In       0.00000    0.00000    0.00000    1.000
    In4      In       0.50000    0.00000    0.00000    1.000
    O25      O        0.25000    0.50000    0.62280    1.000
    O26      O        0.25000    0.00000    0.87720    1.000
    O27      O        0.75000    0.50000    0.37720    1.000
    O28      O        0.75000    0.00000    0.12280    1.000
