# CIF file generated by openbabel 3.1.0, see https://openbabel.org
data_I
_chemical_name_common 'JASNAT_clean'
_cell_length_a 10.883
_cell_length_b 10.9258
_cell_length_c 14.0658
_cell_angle_alpha 92.417
_cell_angle_beta 90.099
_cell_angle_gamma 101.723
_space_group_name_H-M_alt 'P 1'
_space_group_name_Hall 'P 1'
loop_
    _symmetry_equiv_pos_as_xyz
    x,y,z
loop_
    _atom_site_label
    _atom_site_type_symbol
    _atom_site_fract_x
    _atom_site_fract_y
    _atom_site_fract_z
    _atom_site_occupancy
    Zn1      Zn       0.26504    0.34438    0.89078    1.000
    Zn2      Zn       0.26209    0.33156    0.68186    1.000
    H1       H        0.66180    0.35680    0.93060    1.000
    H2       H        0.87370    0.34920    0.92980    1.000
    H3       H        0.65400    0.32650    0.64390    1.000
    H4       H        0.25520    0.71740    0.64370    1.000
    H5       H        0.26520    0.74440    0.92710    1.000
    H6       H        0.25030    0.95300    0.92420    1.000
    H7       H        0.23780    0.92740    0.63930    1.000
    H8       H        0.86570    0.31950    0.64330    1.000
    H9       H        0.08490    0.31950    0.52130    1.000
    H10      H        0.07910    0.31480    0.35860    1.000
    H11      H        0.44790    0.36230    0.35950    1.000
    H12      H        0.44340    0.35850    0.52260    1.000
    H13      H        0.07500    0.32420    0.21220    1.000
    H14      H        0.45120    0.35330    0.21440    1.000
    H15      H        0.08190    0.32390    0.04960    1.000
    H16      H        0.44550    0.35120    0.05160    1.000
    C1       C        0.49970    0.34950    0.78760    1.000
    C2       C        0.63630    0.34290    0.78790    1.000
    C3       C        0.70260    0.34920    0.87250    1.000
    C4       C        0.82910    0.34460    0.87200    1.000
    C5       C        0.69850    0.33130    0.70180    1.000
    C6       C        0.27930    0.57740    0.78760    1.000
    C7       C        0.26660    0.71160    0.78600    1.000
    C8       C        0.25560    0.76530    0.70080    1.000
    C9       C        0.26180    0.78150    0.86830    1.000
    C10      C        0.24240    0.09850    0.77820    1.000
    C11      C        0.24510    0.96120    0.78200    1.000
    C12      C        0.25210    0.90630    0.86670    1.000
    C13      C        0.24490    0.89120    0.69790    1.000
    C14      C        0.02790    0.32830    0.78720    1.000
    C15      C        0.88950    0.33310    0.78720    1.000
    C16      C        0.82430    0.32680    0.70130    1.000
    C17      C        0.16070    0.32590    0.48820    1.000
    C18      C        0.15690    0.32460    0.39020    1.000
    C19      C        0.26340    0.33720    0.33880    1.000
    C20      C        0.37030    0.35120    0.39060    1.000
    C21      C        0.36710    0.34930    0.48900    1.000
    C22      C        0.26290    0.33760    0.23440    1.000
    C23      C        0.15230    0.32980    0.18120    1.000
    C24      C        0.37400    0.34690    0.18250    1.000
    C25      C        0.15740    0.33050    0.08390    1.000
    C26      C        0.36990    0.34660    0.08480    1.000
    N1       N        0.26380    0.33530    0.53700    1.000
    N2       N        0.26510    0.34020    0.03480    1.000
    O1       O        0.44970    0.35720    0.86690    1.000
    O2       O        0.44680    0.34500    0.70790    1.000
    O3       O        0.28390    0.53170    0.86770    1.000
    O4       O        0.28580    0.52110    0.71060    1.000
    O5       O        0.24390    0.15720    0.85770    1.000
    O6       O        0.23960    0.14500    0.69880    1.000
    O7       O        0.08050    0.33120    0.86590    1.000
    O8       O        0.07870    0.32380    0.70740    1.000
    Zn3      Zn       0.73496    0.65562    0.10922    1.000
    Zn4      Zn       0.73791    0.66844    0.31814    1.000
    H17      H        0.33820    0.64320    0.06940    1.000
    H18      H        0.12630    0.65080    0.07020    1.000
    H19      H        0.34600    0.67350    0.35610    1.000
    H20      H        0.74480    0.28260    0.35630    1.000
    H21      H        0.73480    0.25560    0.07290    1.000
    H22      H        0.74970    0.04700    0.07580    1.000
    H23      H        0.76220    0.07260    0.36070    1.000
    H24      H        0.13430    0.68050    0.35670    1.000
    H25      H        0.91510    0.68050    0.47870    1.000
    H26      H        0.92090    0.68520    0.64140    1.000
    H27      H        0.55210    0.63770    0.64050    1.000
    H28      H        0.55660    0.64150    0.47740    1.000
    H29      H        0.92500    0.67580    0.78780    1.000
    H30      H        0.54880    0.64670    0.78560    1.000
    H31      H        0.91810    0.67610    0.95040    1.000
    H32      H        0.55450    0.64880    0.94840    1.000
    C27      C        0.50030    0.65050    0.21240    1.000
    C28      C        0.36370    0.65710    0.21210    1.000
    C29      C        0.29740    0.65080    0.12750    1.000
    C30      C        0.17090    0.65540    0.12800    1.000
    C31      C        0.30150    0.66870    0.29820    1.000
    C32      C        0.72070    0.42260    0.21240    1.000
    C33      C        0.73340    0.28840    0.21400    1.000
    C34      C        0.74440    0.23470    0.29920    1.000
    C35      C        0.73820    0.21850    0.13170    1.000
    C36      C        0.75760    0.90150    0.22180    1.000
    C37      C        0.75490    0.03880    0.21800    1.000
    C38      C        0.74790    0.09370    0.13330    1.000
    C39      C        0.75510    0.10880    0.30210    1.000
    C40      C        0.97210    0.67170    0.21280    1.000
    C41      C        0.11050    0.66690    0.21280    1.000
    C42      C        0.17570    0.67320    0.29870    1.000
    C43      C        0.83930    0.67410    0.51180    1.000
    C44      C        0.84310    0.67540    0.60980    1.000
    C45      C        0.73660    0.66280    0.66120    1.000
    C46      C        0.62970    0.64880    0.60940    1.000
    C47      C        0.63290    0.65070    0.51100    1.000
    C48      C        0.73710    0.66240    0.76560    1.000
    C49      C        0.84770    0.67020    0.81880    1.000
    C50      C        0.62600    0.65310    0.81750    1.000
    C51      C        0.84260    0.66950    0.91610    1.000
    C52      C        0.63010    0.65340    0.91520    1.000
    N3       N        0.73620    0.66470    0.46300    1.000
    N4       N        0.73490    0.65980    0.96520    1.000
    O9       O        0.55030    0.64280    0.13310    1.000
    O10      O        0.55320    0.65500    0.29210    1.000
    O11      O        0.71610    0.46830    0.13230    1.000
    O12      O        0.71420    0.47890    0.28940    1.000
    O13      O        0.75610    0.84280    0.14230    1.000
    O14      O        0.76040    0.85500    0.30120    1.000
    O15      O        0.91950    0.66880    0.13410    1.000
    O16      O        0.92130    0.67620    0.29260    1.000
