# CIF file generated by openbabel 3.1.0, see https://openbabel.org
data_I
_chemical_name_common 'image0'
_cell_length_a 20.07
_cell_length_b 20.07
_cell_length_c 12.733
_cell_angle_alpha 90
_cell_angle_beta 90
_cell_angle_gamma 90
_space_group_name_H-M_alt 'P 1'
_space_group_name_Hall 'P 1'
loop_
    _symmetry_equiv_pos_as_xyz
    x,y,z
loop_
    _atom_site_label
    _atom_site_type_symbol
    _atom_site_fract_x
    _atom_site_fract_y
    _atom_site_fract_z
    _atom_site_occupancy
    Cd1      Cd       0.10384    0.06904    0.40667    1.000
    N1       N        0.14110    0.98670    0.29800    1.000
    N2       N        0.06870    0.13730    0.28160    1.000
    C1       C        0.19210    0.09420    0.49820    1.000
    C2       C        0.04640    0.17470    0.22560    1.000
    C3       C        0.02190    0.01370    0.47980    1.000
    Cd2      Cd       0.60384    0.56904    0.90667    1.000
    N3       N        0.64110    0.48670    0.79800    1.000
    N4       N        0.56870    0.63730    0.78160    1.000
    C4       C        0.69210    0.59420    0.99820    1.000
    C5       C        0.54640    0.67470    0.72560    1.000
    C6       C        0.52190    0.51370    0.97980    1.000
    Cd3      Cd       0.39616    0.93096    0.90667    1.000
    N5       N        0.35890    0.01330    0.79800    1.000
    N6       N        0.43130    0.86270    0.78160    1.000
    C7       C        0.30790    0.90580    0.99820    1.000
    C8       C        0.45360    0.82530    0.72560    1.000
    C9       C        0.47810    0.98630    0.97980    1.000
    Cd4      Cd       0.89616    0.43096    0.40667    1.000
    N7       N        0.85890    0.51330    0.29800    1.000
    N8       N        0.93130    0.36270    0.28160    1.000
    C10      C        0.80790    0.40580    0.49820    1.000
    C11      C        0.95360    0.32530    0.22560    1.000
    C12      C        0.97810    0.48630    0.47980    1.000
    Cd5      Cd       0.68096    0.35384    0.65667    1.000
    N9       N        0.76330    0.39110    0.54800    1.000
    N10      N        0.61270    0.31870    0.53160    1.000
    C13      C        0.65580    0.44210    0.74820    1.000
    C14      C        0.57530    0.29640    0.47560    1.000
    C15      C        0.73630    0.27190    0.72980    1.000
    Cd6      Cd       0.18096    0.85384    0.15667    1.000
    N11      N        0.26330    0.89110    0.04800    1.000
    N12      N        0.11270    0.81870    0.03160    1.000
    C16      C        0.15580    0.94210    0.24820    1.000
    C17      C        0.07530    0.79640    0.97560    1.000
    C18      C        0.23630    0.77190    0.22980    1.000
    Cd7      Cd       0.81904    0.64616    0.15667    1.000
    N13      N        0.73670    0.60890    0.04800    1.000
    N14      N        0.88730    0.68130    0.03160    1.000
    C19      C        0.84420    0.55790    0.24820    1.000
    C20      C        0.92470    0.70360    0.97560    1.000
    C21      C        0.76370    0.72810    0.22980    1.000
    Cd8      Cd       0.31904    0.14616    0.65667    1.000
    N15      N        0.23670    0.10890    0.54800    1.000
    N16      N        0.38730    0.18130    0.53160    1.000
    C22      C        0.34420    0.05790    0.74820    1.000
    C23      C        0.42470    0.20360    0.47560    1.000
    C24      C        0.26370    0.22810    0.72980    1.000
    Cd9      Cd       0.89616    0.93096    0.59333    1.000
    N17      N        0.85890    0.01330    0.70200    1.000
    N18      N        0.93130    0.86270    0.71840    1.000
    C25      C        0.80790    0.90580    0.50180    1.000
    C26      C        0.95360    0.82530    0.77440    1.000
    C27      C        0.97810    0.98630    0.52020    1.000
    Cd10     Cd       0.39616    0.43096    0.09333    1.000
    N19      N        0.35890    0.51330    0.20200    1.000
    N20      N        0.43130    0.36270    0.21840    1.000
    C28      C        0.30790    0.40580    0.00180    1.000
    C29      C        0.45360    0.32530    0.27440    1.000
    C30      C        0.47810    0.48630    0.02020    1.000
    Cd11     Cd       0.60384    0.06904    0.09333    1.000
    N21      N        0.64110    0.98670    0.20200    1.000
    N22      N        0.56870    0.13730    0.21840    1.000
    C31      C        0.69210    0.09420    0.00180    1.000
    C32      C        0.54640    0.17470    0.27440    1.000
    C33      C        0.52190    0.01370    0.02020    1.000
    Cd12     Cd       0.10384    0.56904    0.59333    1.000
    N23      N        0.14110    0.48670    0.70200    1.000
    N24      N        0.06870    0.63730    0.71840    1.000
    C34      C        0.19210    0.59420    0.50180    1.000
    C35      C        0.04640    0.67470    0.77440    1.000
    C36      C        0.02190    0.51370    0.52020    1.000
    Cd13     Cd       0.31904    0.64616    0.34333    1.000
    N25      N        0.23670    0.60890    0.45200    1.000
    N26      N        0.38730    0.68130    0.46840    1.000
    C37      C        0.34420    0.55790    0.25180    1.000
    C38      C        0.42470    0.70360    0.52440    1.000
    C39      C        0.26370    0.72810    0.27020    1.000
    Cd14     Cd       0.81904    0.14616    0.84333    1.000
    N27      N        0.73670    0.10890    0.95200    1.000
    N28      N        0.88730    0.18130    0.96840    1.000
    C40      C        0.84420    0.05790    0.75180    1.000
    C41      C        0.92470    0.20360    0.02440    1.000
    C42      C        0.76370    0.22810    0.77020    1.000
    Cd15     Cd       0.18096    0.35384    0.84333    1.000
    N29      N        0.26330    0.39110    0.95200    1.000
    N30      N        0.11270    0.31870    0.96840    1.000
    C43      C        0.15580    0.44210    0.75180    1.000
    C44      C        0.07530    0.29640    0.02440    1.000
    C45      C        0.23630    0.27190    0.77020    1.000
    Cd16     Cd       0.68096    0.85384    0.34333    1.000
    N31      N        0.76330    0.89110    0.45200    1.000
    N32      N        0.61270    0.81870    0.46840    1.000
    C46      C        0.65580    0.94210    0.25180    1.000
    C47      C        0.57530    0.79640    0.52440    1.000
    C48      C        0.73630    0.77190    0.27020    1.000
    Cd17     Cd       0.00000    0.25000    0.12500    1.000
    Cd18     Cd       0.50000    0.75000    0.62500    1.000
    Cd19     Cd       0.50000    0.25000    0.37500    1.000
    Cd20     Cd       0.00000    0.75000    0.87500    1.000
