# CIF file generated by openbabel 3.1.0, see https://openbabel.org
data_I
_chemical_name_common 'image0'
_cell_length_a 10.3183
_cell_length_b 10.7501
_cell_length_c 10.8315
_cell_angle_alpha 73.436
_cell_angle_beta 79.648
_cell_angle_gamma 83.26
_space_group_name_H-M_alt 'P 1'
_space_group_name_Hall 'P 1'
loop_
    _symmetry_equiv_pos_as_xyz
    x,y,z
loop_
    _atom_site_label
    _atom_site_type_symbol
    _atom_site_fract_x
    _atom_site_fract_y
    _atom_site_fract_z
    _atom_site_occupancy
    Ti1      Ti       0.08810    0.18350    0.29450    1.000
    Ti2      Ti       0.48730    0.41680    0.30620    1.000
    Ti3      Ti       0.89030    0.64090    0.32070    1.000
    P1       P        0.93020    0.91620    0.37230    1.000
    P2       P        0.15820    0.31940    0.98100    1.000
    P3       P        0.40140    0.11600    0.31920    1.000
    P4       P        0.16230    0.45340    0.34960    1.000
    P5       P        0.79420    0.33700    0.35620    1.000
    P6       P        0.56610    0.68680    0.36280    1.000
    P7       P        0.45090    0.56770    0.00940    1.000
    O1       O        0.03480    0.01260    0.30390    1.000
    O2       O        0.93170    0.86350    0.51790    1.000
    O3       O        0.79390    0.98770    0.34650    1.000
    O4       O        0.95930    0.80640    0.30440    1.000
    O5       O        0.09870    0.22480    0.10370    1.000
    O6       O        0.31040    0.29250    0.96200    1.000
    O7       O        0.12920    0.46370    0.99320    1.000
    O8       O        0.09630    0.30480    0.87110    1.000
    O9       O        0.26960    0.11050    0.27790    1.000
    O10      O        0.43730    0.25350    0.29260    1.000
    O11      O        0.39460    0.04080    0.46320    1.000
    O12      O        0.51390    0.04720    0.24060    1.000
    O13      O        0.14350    0.34960    0.28200    1.000
    O14      O        0.30670    0.48850    0.31600    1.000
    O15      O        0.07710    0.57760    0.29860    1.000
    O16      O        0.12200    0.39910    0.49660    1.000
    O17      O        0.67130    0.34020    0.29450    1.000
    O18      O        0.76230    0.27330    0.50780    1.000
    O19      O        0.90360    0.25330    0.29820    1.000
    O20      O        0.83740    0.47300    0.33460    1.000
    O21      O        0.54710    0.57900    0.30190    1.000
    O22      O        0.53000    0.63800    0.51040    1.000
    O23      O        0.71120    0.71730    0.32870    1.000
    O24      O        0.47650    0.80410    0.31220    1.000
    O25      O        0.50770    0.47460    0.11670    1.000
    O26      O        0.30080    0.59030    0.03780    1.000
    O27      O        0.49200    0.70200    0.99900    1.000
    H1       H        0.77990    0.04830    0.38010    1.000
    H2       H        0.34330    0.34360    0.89500    1.000
    H3       H        0.04920    0.48000    0.00780    1.000
    H4       H        0.49780    0.97140    0.25260    1.000
    H5       H        0.82870    0.26910    0.54090    1.000
    H6       H        0.27430    0.64300    0.97470    1.000
    Ti4      Ti       0.91190    0.81650    0.70550    1.000
    Ti5      Ti       0.51270    0.58320    0.69380    1.000
    Ti6      Ti       0.10970    0.35910    0.67930    1.000
    P8       P        0.06980    0.08380    0.62770    1.000
    P9       P        0.84180    0.68060    0.01900    1.000
    P10      P        0.59860    0.88400    0.68080    1.000
    P11      P        0.83770    0.54660    0.65040    1.000
    P12      P        0.20580    0.66300    0.64380    1.000
    P13      P        0.43390    0.31320    0.63720    1.000
    P14      P        0.54910    0.43230    0.99060    1.000
    O28      O        0.96520    0.98740    0.69610    1.000
    O29      O        0.06830    0.13650    0.48210    1.000
    O30      O        0.20610    0.01230    0.65350    1.000
    O31      O        0.04070    0.19360    0.69560    1.000
    O32      O        0.90130    0.77520    0.89630    1.000
    O33      O        0.68960    0.70750    0.03800    1.000
    O34      O        0.87080    0.53630    0.00680    1.000
    O35      O        0.90370    0.69520    0.12890    1.000
    O36      O        0.73040    0.88950    0.72210    1.000
    O37      O        0.56270    0.74650    0.70740    1.000
    O38      O        0.60540    0.95920    0.53680    1.000
    O39      O        0.48610    0.95280    0.75940    1.000
    O40      O        0.85650    0.65040    0.71800    1.000
    O41      O        0.69330    0.51150    0.68400    1.000
    O42      O        0.92290    0.42240    0.70140    1.000
    O43      O        0.87800    0.60090    0.50340    1.000
    O44      O        0.32870    0.65980    0.70550    1.000
    O45      O        0.23770    0.72670    0.49220    1.000
    O46      O        0.09640    0.74670    0.70180    1.000
    O47      O        0.16260    0.52700    0.66540    1.000
    O48      O        0.45290    0.42100    0.69810    1.000
    O49      O        0.47000    0.36200    0.48960    1.000
    O50      O        0.28880    0.28270    0.67130    1.000
    O51      O        0.52350    0.19590    0.68780    1.000
    O52      O        0.49230    0.52540    0.88330    1.000
    O53      O        0.69920    0.40970    0.96220    1.000
    O54      O        0.50800    0.29800    0.00100    1.000
    H7       H        0.22010    0.95170    0.61990    1.000
    H8       H        0.65670    0.65640    0.10500    1.000
    H9       H        0.95080    0.52000    0.99220    1.000
    H10      H        0.50220    0.02860    0.74740    1.000
    H11      H        0.17130    0.73090    0.45910    1.000
    H12      H        0.72570    0.35700    0.02530    1.000
