# CIF file generated by openbabel 3.1.0, see https://openbabel.org
data_I
_chemical_name_common 'image0'
_cell_length_a 12.332
_cell_length_b 12.461
_cell_length_c 12.85
_cell_angle_alpha 90
_cell_angle_beta 91.31
_cell_angle_gamma 90
_space_group_name_H-M_alt 'P 1'
_space_group_name_Hall 'P 1'
loop_
    _symmetry_equiv_pos_as_xyz
    x,y,z
loop_
    _atom_site_label
    _atom_site_type_symbol
    _atom_site_fract_x
    _atom_site_fract_y
    _atom_site_fract_z
    _atom_site_occupancy
    Mn1      Mn       0.23949    0.75287    0.00823    1.000
    Mn2      Mn       0.73998    0.74768    0.00685    1.000
    C1       C        0.48867    0.78333    0.00373    1.000
    H1       H        0.49000    0.73080    0.05510    1.000
    C2       C        0.99166    0.72988    0.04414    1.000
    H2       H        0.99460    0.79930    0.07060    1.000
    C3       C        0.24711    0.78100    0.25854    1.000
    H3       H        0.19940    0.83880    0.25940    1.000
    C4       C        0.73572    0.72935    0.25561    1.000
    H4       H        0.78800    0.67550    0.25730    1.000
    C5       C        0.78179    0.99722    0.97698    1.000
    H5       H        0.72970    0.99680    0.92350    1.000
    C6       C        0.72475    0.49882    0.01305    1.000
    H6       H        0.78510    0.50060    0.05780    1.000
    O1       O        0.07757    0.69195    0.01836    1.000
    O2       O        0.27906    0.75159    0.17279    1.000
    O3       O        0.39848    0.81763    0.97454    1.000
    O4       O        0.57760    0.81345    0.96991    1.000
    O5       O        0.79963    0.91219    0.02088    1.000
    O6       O        0.68150    0.58561    0.99042    1.000
    O7       O        0.70120    0.75907    0.17015    1.000
    O8       O        0.27267    0.74094    0.34257    1.000
    O9       O        0.90071    0.68830    0.03988    1.000
    O10      O        0.69399    0.40918    0.98079    1.000
    O11      O        0.70566    0.76626    0.34045    1.000
    O12      O        0.82668    0.08493    0.99692    1.000
    Mn3      Mn       0.26051    0.25287    0.49177    1.000
    Mn4      Mn       0.76002    0.24768    0.49315    1.000
    C7       C        0.01133    0.28333    0.49627    1.000
    H7       H        0.01000    0.23080    0.44490    1.000
    C8       C        0.50834    0.22988    0.45586    1.000
    H8       H        0.50540    0.29930    0.42940    1.000
    C9       C        0.25289    0.28100    0.24146    1.000
    H9       H        0.30060    0.33880    0.24060    1.000
    C10      C        0.76428    0.22935    0.24439    1.000
    H10      H        0.71200    0.17550    0.24270    1.000
    C11      C        0.71821    0.49722    0.52302    1.000
    H11      H        0.77030    0.49680    0.57650    1.000
    C12      C        0.77525    0.99882    0.48695    1.000
    H12      H        0.71490    0.00060    0.44220    1.000
    O13      O        0.42243    0.19195    0.48164    1.000
    O14      O        0.22094    0.25159    0.32721    1.000
    O15      O        0.10152    0.31763    0.52546    1.000
    O16      O        0.92240    0.31345    0.53009    1.000
    O17      O        0.70037    0.41219    0.47912    1.000
    O18      O        0.81850    0.08561    0.50958    1.000
    O19      O        0.79880    0.25907    0.32985    1.000
    O20      O        0.22733    0.24094    0.15743    1.000
    O21      O        0.59929    0.18830    0.46012    1.000
    O22      O        0.80601    0.90918    0.51921    1.000
    O23      O        0.79434    0.26626    0.15955    1.000
    O24      O        0.67332    0.58493    0.50308    1.000
    Mn5      Mn       0.76051    0.24713    0.99177    1.000
    Mn6      Mn       0.26002    0.25232    0.99315    1.000
    C13      C        0.51133    0.21667    0.99627    1.000
    H13      H        0.51000    0.26920    0.94490    1.000
    C14      C        0.00834    0.27012    0.95586    1.000
    H14      H        0.00540    0.20070    0.92940    1.000
    C15      C        0.75289    0.21900    0.74146    1.000
    H15      H        0.80060    0.16120    0.74060    1.000
    C16      C        0.26428    0.27065    0.74439    1.000
    H16      H        0.21200    0.32450    0.74270    1.000
    C17      C        0.21821    0.00278    0.02302    1.000
    H17      H        0.27030    0.00320    0.07650    1.000
    C18      C        0.27525    0.50118    0.98695    1.000
    H18      H        0.21490    0.49940    0.94220    1.000
    O25      O        0.92243    0.30805    0.98164    1.000
    O26      O        0.72094    0.24841    0.82721    1.000
    O27      O        0.60152    0.18237    0.02546    1.000
    O28      O        0.42240    0.18655    0.03009    1.000
    O29      O        0.20037    0.08781    0.97912    1.000
    O30      O        0.31850    0.41439    0.00958    1.000
    O31      O        0.29880    0.24093    0.82985    1.000
    O32      O        0.72733    0.25906    0.65743    1.000
    O33      O        0.09929    0.31170    0.96012    1.000
    O34      O        0.30601    0.59082    0.01921    1.000
    O35      O        0.29434    0.23374    0.65955    1.000
    O36      O        0.17332    0.91507    0.00308    1.000
    Mn7      Mn       0.73949    0.74713    0.50823    1.000
    Mn8      Mn       0.23998    0.75232    0.50685    1.000
    C19      C        0.98867    0.71667    0.50373    1.000
    H19      H        0.99000    0.76920    0.55510    1.000
    C20      C        0.49166    0.77012    0.54414    1.000
    H20      H        0.49460    0.70070    0.57060    1.000
    C21      C        0.74711    0.71900    0.75854    1.000
    H21      H        0.69940    0.66120    0.75940    1.000
    C22      C        0.23572    0.77065    0.75561    1.000
    H22      H        0.28800    0.82450    0.75730    1.000
    C23      C        0.28179    0.50278    0.47698    1.000
    H23      H        0.22970    0.50320    0.42350    1.000
    C24      C        0.22475    0.00118    0.51305    1.000
    H24      H        0.28510    0.99940    0.55780    1.000
    O37      O        0.57757    0.80805    0.51836    1.000
    O38      O        0.77906    0.74841    0.67279    1.000
    O39      O        0.89848    0.68237    0.47454    1.000
    O40      O        0.07760    0.68655    0.46991    1.000
    O41      O        0.29963    0.58781    0.52088    1.000
    O42      O        0.18150    0.91439    0.49042    1.000
    O43      O        0.20120    0.74093    0.67015    1.000
    O44      O        0.77267    0.75906    0.84257    1.000
    O45      O        0.40071    0.81170    0.53988    1.000
    O46      O        0.19399    0.09082    0.48079    1.000
    O47      O        0.20566    0.73374    0.84045    1.000
    O48      O        0.32668    0.41507    0.49692    1.000
