# CIF file generated by openbabel 3.1.0, see https://openbabel.org
data_I
_chemical_name_common 'image0'
_cell_length_a 19.6065
_cell_length_b 19.6065
_cell_length_c 22.1808
_cell_angle_alpha 90
_cell_angle_beta 90
_cell_angle_gamma 90
_space_group_name_H-M_alt 'P 1'
_space_group_name_Hall 'P 1'
loop_
    _symmetry_equiv_pos_as_xyz
    x,y,z
loop_
    _atom_site_label
    _atom_site_type_symbol
    _atom_site_fract_x
    _atom_site_fract_y
    _atom_site_fract_z
    _atom_site_occupancy
    S1       S        0.10739    0.96119    0.43858    1.000
    C1       C        0.08265    0.96845    0.36850    1.000
    N1       N        0.06556    0.97137    0.31835    1.000
    S2       S        0.10679    0.84415    0.11317    1.000
    C2       C        0.08149    0.90941    0.15337    1.000
    N2       N        0.06550    0.95640    0.18158    1.000
    S3       S        0.07477    0.23083    0.21185    1.000
    C3       C        0.05813    0.15184    0.22998    1.000
    N3       N        0.04750    0.09596    0.24354    1.000
    S4       S        0.60739    0.46119    0.93858    1.000
    C4       C        0.58265    0.46845    0.86850    1.000
    N4       N        0.56556    0.47137    0.81835    1.000
    S5       S        0.60679    0.34415    0.61317    1.000
    C5       C        0.58149    0.40941    0.65337    1.000
    N5       N        0.56550    0.45640    0.68158    1.000
    S6       S        0.57477    0.73083    0.71185    1.000
    C6       C        0.55813    0.65184    0.72998    1.000
    N6       N        0.54750    0.59596    0.74354    1.000
    S7       S        0.89261    0.03881    0.43858    1.000
    C7       C        0.91735    0.03155    0.36850    1.000
    N7       N        0.93444    0.02863    0.31835    1.000
    S8       S        0.89321    0.15585    0.11317    1.000
    C8       C        0.91851    0.09059    0.15337    1.000
    N8       N        0.93450    0.04360    0.18158    1.000
    S9       S        0.92523    0.76917    0.21185    1.000
    C9       C        0.94187    0.84816    0.22998    1.000
    N9       N        0.95250    0.90404    0.24354    1.000
    S10      S        0.39261    0.53881    0.93858    1.000
    C10      C        0.41735    0.53155    0.86850    1.000
    N10      N        0.43444    0.52863    0.81835    1.000
    S11      S        0.39321    0.65585    0.61317    1.000
    C11      C        0.41851    0.59059    0.65337    1.000
    N11      N        0.43450    0.54360    0.68158    1.000
    S12      S        0.42523    0.26917    0.71185    1.000
    C12      C        0.44187    0.34816    0.72998    1.000
    N12      N        0.45250    0.40404    0.74354    1.000
    S13      S        0.96119    0.89261    0.56142    1.000
    C13      C        0.96845    0.91735    0.63150    1.000
    N13      N        0.97137    0.93444    0.68165    1.000
    S14      S        0.84415    0.89321    0.88683    1.000
    C14      C        0.90941    0.91851    0.84663    1.000
    N14      N        0.95640    0.93450    0.81842    1.000
    S15      S        0.23083    0.92523    0.78815    1.000
    C15      C        0.15184    0.94187    0.77002    1.000
    N15      N        0.09596    0.95250    0.75646    1.000
    S16      S        0.46119    0.39261    0.06142    1.000
    C16      C        0.46845    0.41735    0.13150    1.000
    N16      N        0.47137    0.43444    0.18165    1.000
    S17      S        0.34415    0.39321    0.38683    1.000
    C17      C        0.40941    0.41851    0.34663    1.000
    N17      N        0.45640    0.43450    0.31842    1.000
    S18      S        0.73083    0.42523    0.28815    1.000
    C18      C        0.65184    0.44187    0.27002    1.000
    N18      N        0.59596    0.45250    0.25646    1.000
    S19      S        0.03881    0.10739    0.56142    1.000
    C19      C        0.03155    0.08265    0.63150    1.000
    N19      N        0.02863    0.06556    0.68165    1.000
    S20      S        0.15585    0.10679    0.88683    1.000
    C20      C        0.09059    0.08149    0.84663    1.000
    N20      N        0.04360    0.06550    0.81842    1.000
    S21      S        0.76917    0.07477    0.78815    1.000
    C21      C        0.84816    0.05813    0.77002    1.000
    N21      N        0.90404    0.04750    0.75646    1.000
    S22      S        0.53881    0.60739    0.06142    1.000
    C22      C        0.53155    0.58265    0.13150    1.000
    N22      N        0.52863    0.56556    0.18165    1.000
    S23      S        0.65585    0.60679    0.38683    1.000
    C23      C        0.59059    0.58149    0.34663    1.000
    N23      N        0.54360    0.56550    0.31842    1.000
    S24      S        0.26917    0.57477    0.28815    1.000
    C24      C        0.34816    0.55813    0.27002    1.000
    N24      N        0.40404    0.54750    0.25646    1.000
    S25      S        0.39261    0.96119    0.31142    1.000
    C25      C        0.41735    0.96845    0.38150    1.000
    N25      N        0.43444    0.97137    0.43165    1.000
    S26      S        0.39321    0.84415    0.63683    1.000
    C26      C        0.41851    0.90941    0.59663    1.000
    N26      N        0.43450    0.95640    0.56842    1.000
    S27      S        0.42523    0.23083    0.53815    1.000
    C27      C        0.44187    0.15184    0.52002    1.000
    N27      N        0.45250    0.09596    0.50646    1.000
    S28      S        0.89261    0.46119    0.81142    1.000
    C28      C        0.91735    0.46845    0.88150    1.000
    N28      N        0.93444    0.47137    0.93165    1.000
    S29      S        0.89321    0.34415    0.13683    1.000
    C29      C        0.91851    0.40941    0.09663    1.000
    N29      N        0.93450    0.45640    0.06842    1.000
    S30      S        0.92523    0.73083    0.03815    1.000
    C30      C        0.94187    0.65184    0.02002    1.000
    N30      N        0.95250    0.59596    0.00646    1.000
    S31      S        0.60739    0.03881    0.31142    1.000
    C31      C        0.58265    0.03155    0.38150    1.000
    N31      N        0.56556    0.02863    0.43165    1.000
    S32      S        0.60679    0.15585    0.63683    1.000
    C32      C        0.58149    0.09059    0.59663    1.000
    N32      N        0.56550    0.04360    0.56842    1.000
    S33      S        0.57477    0.76917    0.53815    1.000
    C33      C        0.55813    0.84816    0.52002    1.000
    N33      N        0.54750    0.90404    0.50646    1.000
    S34      S        0.10739    0.53881    0.81142    1.000
    C34      C        0.08265    0.53155    0.88150    1.000
    N34      N        0.06556    0.52863    0.93165    1.000
    S35      S        0.10679    0.65585    0.13683    1.000
    C35      C        0.08149    0.59059    0.09663    1.000
    N35      N        0.06550    0.54360    0.06842    1.000
    S36      S        0.07477    0.26917    0.03815    1.000
    C36      C        0.05813    0.34816    0.02002    1.000
    N36      N        0.04750    0.40404    0.00646    1.000
    S37      S        0.53881    0.89261    0.18858    1.000
    C37      C        0.53155    0.91735    0.11850    1.000
    N37      N        0.52863    0.93444    0.06835    1.000
    S38      S        0.65585    0.89321    0.86317    1.000
    C38      C        0.59059    0.91851    0.90337    1.000
    N38      N        0.54360    0.93450    0.93158    1.000
    S39      S        0.26917    0.92523    0.96185    1.000
    C39      C        0.34816    0.94187    0.97998    1.000
    N39      N        0.40404    0.95250    0.99354    1.000
    S40      S        0.03881    0.39261    0.68858    1.000
    C40      C        0.03155    0.41735    0.61850    1.000
    N40      N        0.02863    0.43444    0.56835    1.000
    S41      S        0.15585    0.39321    0.36317    1.000
    C41      C        0.09059    0.41851    0.40337    1.000
    N41      N        0.04360    0.43450    0.43158    1.000
    S42      S        0.76917    0.42523    0.46185    1.000
    C42      C        0.84816    0.44187    0.47998    1.000
    N42      N        0.90404    0.45250    0.49354    1.000
    S43      S        0.46119    0.10739    0.18858    1.000
    C43      C        0.46845    0.08265    0.11850    1.000
    N43      N        0.47137    0.06556    0.06835    1.000
    S44      S        0.34415    0.10679    0.86317    1.000
    C44      C        0.40941    0.08149    0.90337    1.000
    N44      N        0.45640    0.06550    0.93158    1.000
    S45      S        0.73083    0.07477    0.96185    1.000
    C45      C        0.65184    0.05813    0.97998    1.000
    N45      N        0.59596    0.04750    0.99354    1.000
    S46      S        0.96119    0.60739    0.68858    1.000
    C46      C        0.96845    0.58265    0.61850    1.000
    N46      N        0.97137    0.56556    0.56835    1.000
    S47      S        0.84415    0.60679    0.36317    1.000
    C47      C        0.90941    0.58149    0.40337    1.000
    N47      N        0.95640    0.56550    0.43158    1.000
    S48      S        0.23083    0.57477    0.46185    1.000
    C48      C        0.15184    0.55813    0.47998    1.000
    N48      N        0.09596    0.54750    0.49354    1.000
    Fe1      Fe       0.00000    0.00000    0.24728    1.000
    Fe2      Fe       0.50000    0.50000    0.74728    1.000
    Fe3      Fe       0.00000    0.00000    0.75272    1.000
    Fe4      Fe       0.50000    0.50000    0.25272    1.000
    Fe5      Fe       0.50000    0.00000    0.50272    1.000
    Fe6      Fe       0.00000    0.50000    0.00272    1.000
    Fe7      Fe       0.50000    0.00000    0.99728    1.000
    Fe8      Fe       0.00000    0.50000    0.49728    1.000
    Ag1      Ag       0.00000    0.00000    0.50000    1.000
    Ag2      Ag       0.50000    0.50000    0.00000    1.000
    Ag3      Ag       0.50000    0.00000    0.25000    1.000
    Ag4      Ag       0.00000    0.50000    0.75000    1.000
    Ag5      Ag       0.01364    0.75000    0.12500    1.000
    Ag6      Ag       0.98636    0.25000    0.12500    1.000
    Ag7      Ag       0.75000    0.98636    0.87500    1.000
    Ag8      Ag       0.25000    0.48636    0.37500    1.000
    Ag9      Ag       0.25000    0.01364    0.87500    1.000
    Ag10     Ag       0.75000    0.51364    0.37500    1.000
    Ag11     Ag       0.48636    0.75000    0.62500    1.000
    Ag12     Ag       0.51364    0.25000    0.62500    1.000
