# CIF file generated by openbabel 3.1.0, see https://openbabel.org
data_I
_chemical_name_common 'image0'
_cell_length_a 40.575
_cell_length_b 14.3747
_cell_length_c 20.156
_cell_angle_alpha 90
_cell_angle_beta 108.058
_cell_angle_gamma 90
_space_group_name_H-M_alt 'P 1'
_space_group_name_Hall 'P 1'
loop_
    _symmetry_equiv_pos_as_xyz
    x,y,z
loop_
    _atom_site_label
    _atom_site_type_symbol
    _atom_site_fract_x
    _atom_site_fract_y
    _atom_site_fract_z
    _atom_site_occupancy
    Co1      Co       0.41648    0.46531    0.87910    1.000
    Co2      Co       0.77885    0.65438    0.67145    1.000
    O1       O        0.38255    0.48350    0.78449    1.000
    O2       O        0.43091    0.46354    0.75886    1.000
    O3       O        0.38213    0.53207    0.43176    1.000
    O4       O        0.43225    0.53168    0.51508    1.000
    O5       O        0.78021    0.62450    0.57840    1.000
    O6       O        0.77232    0.48060    0.60537    1.000
    O7       O        0.71436    0.71193    0.33700    1.000
    O8       O        0.72585    0.63070    0.25371    1.000
    N1       N        0.44475    0.58368    0.89491    1.000
    N2       N        0.48144    0.69210    0.88771    1.000
    N3       N        0.56826    0.33133    0.61268    1.000
    N4       N        0.56875    0.18807    0.64961    1.000
    N5       N        0.73044    0.64757    0.67788    1.000
    N6       N        0.68500    0.67974    0.71086    1.000
    N7       N        0.69121    0.91260    0.24384    1.000
    N8       N        0.66241    0.94224    0.13429    1.000
    C1       C        0.39991    0.48370    0.74132    1.000
    C2       C        0.38072    0.51020    0.66713    1.000
    C3       C        0.39815    0.50930    0.61756    1.000
    H1       H        0.42140    0.49210    0.63040    1.000
    C4       C        0.38097    0.53404    0.54906    1.000
    C5       C        0.40026    0.53260    0.49644    1.000
    C6       C        0.34661    0.56000    0.53037    1.000
    H2       H        0.33500    0.57610    0.48430    1.000
    C7       C        0.32928    0.56230    0.57955    1.000
    H3       H        0.30620    0.58110    0.56690    1.000
    C8       C        0.34642    0.53650    0.64808    1.000
    H4       H        0.33470    0.53700    0.68110    1.000
    C9       C        0.46748    0.60980    0.86448    1.000
    H5       H        0.47320    0.57500    0.83070    1.000
    C10      C        0.46550    0.72260    0.93509    1.000
    H6       H        0.46950    0.77840    0.95960    1.000
    C11      C        0.44329    0.65600    0.93870    1.000
    H7       H        0.42890    0.65800    0.96670    1.000
    C12      C        0.50894    0.73790    0.86977    1.000
    C13      C        0.53226    0.68650    0.84815    1.000
    H8       H        0.52950    0.62240    0.84260    1.000
    C14      C        0.56000    0.73080    0.83458    1.000
    H9       H        0.57570    0.69590    0.81980    1.000
    C15      C        0.56451    0.82600    0.84269    1.000
    C16      C        0.54026    0.87660    0.86419    1.000
    H10      H        0.54290    0.94070    0.86990    1.000
    C17      C        0.51247    0.83330    0.87708    1.000
    H11      H        0.49630    0.86800    0.89060    1.000
    C18      C        0.59736    0.87776    0.83989    1.000
    C19      C        0.57477    0.27610    0.66747    1.000
    H12      H        0.58270    0.29690    0.71340    1.000
    C20      C        0.55835    0.18370    0.57793    1.000
    H13      H        0.55280    0.13070    0.55030    1.000
    C21      C        0.55782    0.27310    0.55616    1.000
    H14      H        0.55140    0.29200    0.50980    1.000
    C22      C        0.57511    0.11110    0.69766    1.000
    C23      C        0.60682    0.10480    0.74854    1.000
    H15      H        0.62370    0.14980    0.75160    1.000
    C24      C        0.61346    0.03100    0.79527    1.000
    H16      H        0.63510    0.02610    0.82900    1.000
    C25      C        0.58821    0.96406    0.79238    1.000
    C26      C        0.55691    0.97190    0.74080    1.000
    H17      H        0.53980    0.92750    0.73780    1.000
    C27      C        0.55015    0.04500    0.69278    1.000
    H18      H        0.52890    0.04880    0.65790    1.000
    C28      C        0.71683    0.70600    0.71262    1.000
    H19      H        0.72800    0.75890    0.73550    1.000
    C29      C        0.70549    0.57950    0.65293    1.000
    H20      H        0.70780    0.52830    0.62640    1.000
    C30      C        0.67755    0.59860    0.67279    1.000
    H21      H        0.65720    0.56400    0.66280    1.000
    C31      C        0.66307    0.72718    0.74395    1.000
    C32      C        0.67757    0.76850    0.80816    1.000
    H22      H        0.70130    0.76490    0.83030    1.000
    C33      C        0.65650    0.81520    0.83934    1.000
    H23      H        0.66640    0.84410    0.88220    1.000
    C34      C        0.62089    0.81980    0.80813    1.000
    C35      C        0.60718    0.77820    0.74295    1.000
    H24      H        0.58340    0.78130    0.72060    1.000
    C36      C        0.62800    0.73260    0.71086    1.000
    H25      H        0.61840    0.70570    0.66720    1.000
    C37      C        0.67619    0.87600    0.18182    1.000
    H26      H        0.67530    0.81260    0.17220    1.000
    C38      C        0.68704    0.00700    0.23535    1.000
    H27      H        0.69520    0.05090    0.27050    1.000
    C39      C        0.66931    0.02640    0.16832    1.000
    H28      H        0.66300    0.08500    0.14900    1.000
    C40      C        0.64569    0.92800    0.06084    1.000
    C41      C        0.64419    0.83930    0.03342    1.000
    H29      H        0.65320    0.78890    0.06230    1.000
    C42      C        0.62922    0.82680    0.96287    1.000
    H30      H        0.62820    0.76700    0.94470    1.000
    C43      C        0.61565    0.89990    0.91763    1.000
    C44      C        0.61695    0.98690    0.94700    1.000
    H31      H        0.60780    0.03750    0.91840    1.000
    C45      C        0.63167    0.00090    0.01849    1.000
    H32      H        0.63190    0.06010    0.03730    1.000
    C46      C        0.77372    0.53940    0.56259    1.000
    C47      C        0.76524    0.51540    0.48697    1.000
    C48      C        0.75182    0.58510    0.43743    1.000
    H33      H        0.74970    0.64540    0.45230    1.000
    C49      C        0.74166    0.56580    0.36663    1.000
    C50      C        0.72675    0.64080    0.31490    1.000
    C51      C        0.74642    0.47670    0.34624    1.000
    H34      H        0.74080    0.46380    0.29880    1.000
    C52      C        0.75894    0.40740    0.39230    1.000
    H35      H        0.76150    0.34790    0.37660    1.000
    C53      C        0.76816    0.42610    0.46470    1.000
    H36      H        0.77610    0.37850    0.49690    1.000
    Co3      Co       0.91648    0.96531    0.87910    1.000
    Co4      Co       0.27885    0.15438    0.67145    1.000
    O9       O        0.88255    0.98350    0.78449    1.000
    O10      O        0.93091    0.96354    0.75886    1.000
    O11      O        0.88213    0.03207    0.43176    1.000
    O12      O        0.93225    0.03168    0.51508    1.000
    O13      O        0.28021    0.12450    0.57840    1.000
    O14      O        0.27232    0.98060    0.60537    1.000
    O15      O        0.21436    0.21193    0.33700    1.000
    O16      O        0.22585    0.13070    0.25371    1.000
    N9       N        0.94475    0.08368    0.89491    1.000
    N10      N        0.98144    0.19210    0.88771    1.000
    N11      N        0.06826    0.83133    0.61268    1.000
    N12      N        0.06875    0.68807    0.64961    1.000
    N13      N        0.23044    0.14757    0.67788    1.000
    N14      N        0.18500    0.17974    0.71086    1.000
    N15      N        0.19121    0.41260    0.24384    1.000
    N16      N        0.16241    0.44224    0.13429    1.000
    C54      C        0.89991    0.98370    0.74132    1.000
    C55      C        0.88072    0.01020    0.66713    1.000
    C56      C        0.89815    0.00930    0.61756    1.000
    H37      H        0.92140    0.99210    0.63040    1.000
    C57      C        0.88097    0.03404    0.54906    1.000
    C58      C        0.90026    0.03260    0.49644    1.000
    C59      C        0.84661    0.06000    0.53037    1.000
    H38      H        0.83500    0.07610    0.48430    1.000
    C60      C        0.82928    0.06230    0.57955    1.000
    H39      H        0.80620    0.08110    0.56690    1.000
    C61      C        0.84642    0.03650    0.64808    1.000
    H40      H        0.83470    0.03700    0.68110    1.000
    C62      C        0.96748    0.10980    0.86448    1.000
    H41      H        0.97320    0.07500    0.83070    1.000
    C63      C        0.96550    0.22260    0.93509    1.000
    H42      H        0.96950    0.27840    0.95960    1.000
    C64      C        0.94329    0.15600    0.93870    1.000
    H43      H        0.92890    0.15800    0.96670    1.000
    C65      C        0.00894    0.23790    0.86977    1.000
    C66      C        0.03226    0.18650    0.84815    1.000
    H44      H        0.02950    0.12240    0.84260    1.000
    C67      C        0.06000    0.23080    0.83458    1.000
    H45      H        0.07570    0.19590    0.81980    1.000
    C68      C        0.06451    0.32600    0.84269    1.000
    C69      C        0.04026    0.37660    0.86419    1.000
    H46      H        0.04290    0.44070    0.86990    1.000
    C70      C        0.01247    0.33330    0.87708    1.000
    H47      H        0.99630    0.36800    0.89060    1.000
    C71      C        0.09736    0.37776    0.83989    1.000
    C72      C        0.07477    0.77610    0.66747    1.000
    H48      H        0.08270    0.79690    0.71340    1.000
    C73      C        0.05835    0.68370    0.57793    1.000
    H49      H        0.05280    0.63070    0.55030    1.000
    C74      C        0.05782    0.77310    0.55616    1.000
    H50      H        0.05140    0.79200    0.50980    1.000
    C75      C        0.07511    0.61110    0.69766    1.000
    C76      C        0.10682    0.60480    0.74854    1.000
    H51      H        0.12370    0.64980    0.75160    1.000
    C77      C        0.11346    0.53100    0.79527    1.000
    H52      H        0.13510    0.52610    0.82900    1.000
    C78      C        0.08821    0.46406    0.79238    1.000
    C79      C        0.05691    0.47190    0.74080    1.000
    H53      H        0.03980    0.42750    0.73780    1.000
    C80      C        0.05015    0.54500    0.69278    1.000
    H54      H        0.02890    0.54880    0.65790    1.000
    C81      C        0.21683    0.20600    0.71262    1.000
    H55      H        0.22800    0.25890    0.73550    1.000
    C82      C        0.20549    0.07950    0.65293    1.000
    H56      H        0.20780    0.02830    0.62640    1.000
    C83      C        0.17755    0.09860    0.67279    1.000
    H57      H        0.15720    0.06400    0.66280    1.000
    C84      C        0.16307    0.22718    0.74395    1.000
    C85      C        0.17757    0.26850    0.80816    1.000
    H58      H        0.20130    0.26490    0.83030    1.000
    C86      C        0.15650    0.31520    0.83934    1.000
    H59      H        0.16640    0.34410    0.88220    1.000
    C87      C        0.12089    0.31980    0.80813    1.000
    C88      C        0.10718    0.27820    0.74295    1.000
    H60      H        0.08340    0.28130    0.72060    1.000
    C89      C        0.12800    0.23260    0.71086    1.000
    H61      H        0.11840    0.20570    0.66720    1.000
    C90      C        0.17619    0.37600    0.18182    1.000
    H62      H        0.17530    0.31260    0.17220    1.000
    C91      C        0.18704    0.50700    0.23535    1.000
    H63      H        0.19520    0.55090    0.27050    1.000
    C92      C        0.16931    0.52640    0.16832    1.000
    H64      H        0.16300    0.58500    0.14900    1.000
    C93      C        0.14569    0.42800    0.06084    1.000
    C94      C        0.14419    0.33930    0.03342    1.000
    H65      H        0.15320    0.28890    0.06230    1.000
    C95      C        0.12922    0.32680    0.96287    1.000
    H66      H        0.12820    0.26700    0.94470    1.000
    C96      C        0.11565    0.39990    0.91763    1.000
    C97      C        0.11695    0.48690    0.94700    1.000
    H67      H        0.10780    0.53750    0.91840    1.000
    C98      C        0.13167    0.50090    0.01849    1.000
    H68      H        0.13190    0.56010    0.03730    1.000
    C99      C        0.27372    0.03940    0.56259    1.000
    C100     C        0.26524    0.01540    0.48697    1.000
    C101     C        0.25182    0.08510    0.43743    1.000
    H69      H        0.24970    0.14540    0.45230    1.000
    C102     C        0.24166    0.06580    0.36663    1.000
    C103     C        0.22675    0.14080    0.31490    1.000
    C104     C        0.24642    0.97670    0.34624    1.000
    H70      H        0.24080    0.96380    0.29880    1.000
    C105     C        0.25894    0.90740    0.39230    1.000
    H71      H        0.26150    0.84790    0.37660    1.000
    C106     C        0.26816    0.92610    0.46470    1.000
    H72      H        0.27610    0.87850    0.49690    1.000
    Co5      Co       0.58352    0.46531    0.62090    1.000
    Co6      Co       0.22115    0.65438    0.82855    1.000
    O17      O        0.61745    0.48350    0.71551    1.000
    O18      O        0.56909    0.46354    0.74114    1.000
    O19      O        0.61787    0.53207    0.06824    1.000
    O20      O        0.56775    0.53168    0.98492    1.000
    O21      O        0.21979    0.62450    0.92160    1.000
    O22      O        0.22768    0.48060    0.89463    1.000
    O23      O        0.28564    0.71193    0.16300    1.000
    O24      O        0.27415    0.63070    0.24629    1.000
    N17      N        0.55525    0.58368    0.60509    1.000
    N18      N        0.51856    0.69210    0.61229    1.000
    N19      N        0.43174    0.33133    0.88732    1.000
    N20      N        0.43125    0.18807    0.85039    1.000
    N21      N        0.26956    0.64757    0.82212    1.000
    N22      N        0.31500    0.67974    0.78914    1.000
    N23      N        0.30879    0.91260    0.25616    1.000
    N24      N        0.33759    0.94224    0.36571    1.000
    C107     C        0.60009    0.48370    0.75868    1.000
    C108     C        0.61928    0.51020    0.83287    1.000
    C109     C        0.60185    0.50930    0.88244    1.000
    H73      H        0.57860    0.49210    0.86960    1.000
    C110     C        0.61903    0.53404    0.95094    1.000
    C111     C        0.59974    0.53260    0.00356    1.000
    C112     C        0.65339    0.56000    0.96963    1.000
    H74      H        0.66500    0.57610    0.01570    1.000
    C113     C        0.67072    0.56230    0.92045    1.000
    H75      H        0.69380    0.58110    0.93310    1.000
    C114     C        0.65358    0.53650    0.85192    1.000
    H76      H        0.66530    0.53700    0.81890    1.000
    C115     C        0.53252    0.60980    0.63552    1.000
    H77      H        0.52680    0.57500    0.66930    1.000
    C116     C        0.53450    0.72260    0.56491    1.000
    H78      H        0.53050    0.77840    0.54040    1.000
    C117     C        0.55671    0.65600    0.56130    1.000
    H79      H        0.57110    0.65800    0.53330    1.000
    C118     C        0.49106    0.73790    0.63023    1.000
    C119     C        0.46774    0.68650    0.65185    1.000
    H80      H        0.47050    0.62240    0.65740    1.000
    C120     C        0.44000    0.73080    0.66542    1.000
    H81      H        0.42430    0.69590    0.68020    1.000
    C121     C        0.43549    0.82600    0.65731    1.000
    C122     C        0.45974    0.87660    0.63581    1.000
    H82      H        0.45710    0.94070    0.63010    1.000
    C123     C        0.48753    0.83330    0.62292    1.000
    H83      H        0.50370    0.86800    0.60940    1.000
    C124     C        0.40264    0.87776    0.66011    1.000
    C125     C        0.42523    0.27610    0.83253    1.000
    H84      H        0.41730    0.29690    0.78660    1.000
    C126     C        0.44165    0.18370    0.92207    1.000
    H85      H        0.44720    0.13070    0.94970    1.000
    C127     C        0.44218    0.27310    0.94384    1.000
    H86      H        0.44860    0.29200    0.99020    1.000
    C128     C        0.42489    0.11110    0.80234    1.000
    C129     C        0.39318    0.10480    0.75146    1.000
    H87      H        0.37630    0.14980    0.74840    1.000
    C130     C        0.38654    0.03100    0.70473    1.000
    H88      H        0.36490    0.02610    0.67100    1.000
    C131     C        0.41179    0.96406    0.70762    1.000
    C132     C        0.44309    0.97190    0.75920    1.000
    H89      H        0.46020    0.92750    0.76220    1.000
    C133     C        0.44985    0.04500    0.80722    1.000
    H90      H        0.47110    0.04880    0.84210    1.000
    C134     C        0.28317    0.70600    0.78738    1.000
    H91      H        0.27200    0.75890    0.76450    1.000
    C135     C        0.29451    0.57950    0.84707    1.000
    H92      H        0.29220    0.52830    0.87360    1.000
    C136     C        0.32245    0.59860    0.82721    1.000
    H93      H        0.34280    0.56400    0.83720    1.000
    C137     C        0.33693    0.72718    0.75605    1.000
    C138     C        0.32243    0.76850    0.69184    1.000
    H94      H        0.29870    0.76490    0.66970    1.000
    C139     C        0.34350    0.81520    0.66066    1.000
    H95      H        0.33360    0.84410    0.61780    1.000
    C140     C        0.37911    0.81980    0.69187    1.000
    C141     C        0.39282    0.77820    0.75705    1.000
    H96      H        0.41660    0.78130    0.77940    1.000
    C142     C        0.37200    0.73260    0.78914    1.000
    H97      H        0.38160    0.70570    0.83280    1.000
    C143     C        0.32381    0.87600    0.31818    1.000
    H98      H        0.32470    0.81260    0.32780    1.000
    C144     C        0.31296    0.00700    0.26465    1.000
    H99      H        0.30480    0.05090    0.22950    1.000
    C145     C        0.33069    0.02640    0.33168    1.000
    H100     H        0.33700    0.08500    0.35100    1.000
    C146     C        0.35431    0.92800    0.43916    1.000
    C147     C        0.35581    0.83930    0.46658    1.000
    H101     H        0.34680    0.78890    0.43770    1.000
    C148     C        0.37078    0.82680    0.53713    1.000
    H102     H        0.37180    0.76700    0.55530    1.000
    C149     C        0.38435    0.89990    0.58237    1.000
    C150     C        0.38305    0.98690    0.55300    1.000
    H103     H        0.39220    0.03750    0.58160    1.000
    C151     C        0.36833    0.00090    0.48151    1.000
    H104     H        0.36810    0.06010    0.46270    1.000
    C152     C        0.22628    0.53940    0.93741    1.000
    C153     C        0.23476    0.51540    0.01303    1.000
    C154     C        0.24818    0.58510    0.06257    1.000
    H105     H        0.25030    0.64540    0.04770    1.000
    C155     C        0.25834    0.56580    0.13337    1.000
    C156     C        0.27325    0.64080    0.18510    1.000
    C157     C        0.25358    0.47670    0.15376    1.000
    H106     H        0.25920    0.46380    0.20120    1.000
    C158     C        0.24106    0.40740    0.10770    1.000
    H107     H        0.23850    0.34790    0.12340    1.000
    C159     C        0.23184    0.42610    0.03530    1.000
    H108     H        0.22390    0.37850    0.00310    1.000
    Co7      Co       0.08352    0.96531    0.62090    1.000
    Co8      Co       0.72115    0.15438    0.82855    1.000
    O25      O        0.11745    0.98350    0.71551    1.000
    O26      O        0.06909    0.96354    0.74114    1.000
    O27      O        0.11787    0.03207    0.06824    1.000
    O28      O        0.06775    0.03168    0.98492    1.000
    O29      O        0.71979    0.12450    0.92160    1.000
    O30      O        0.72768    0.98060    0.89463    1.000
    O31      O        0.78564    0.21193    0.16300    1.000
    O32      O        0.77415    0.13070    0.24629    1.000
    N25      N        0.05525    0.08368    0.60509    1.000
    N26      N        0.01856    0.19210    0.61229    1.000
    N27      N        0.93174    0.83133    0.88732    1.000
    N28      N        0.93125    0.68807    0.85039    1.000
    N29      N        0.76956    0.14757    0.82212    1.000
    N30      N        0.81500    0.17974    0.78914    1.000
    N31      N        0.80879    0.41260    0.25616    1.000
    N32      N        0.83759    0.44224    0.36571    1.000
    C160     C        0.10009    0.98370    0.75868    1.000
    C161     C        0.11928    0.01020    0.83287    1.000
    C162     C        0.10185    0.00930    0.88244    1.000
    H109     H        0.07860    0.99210    0.86960    1.000
    C163     C        0.11903    0.03404    0.95094    1.000
    C164     C        0.09974    0.03260    0.00356    1.000
    C165     C        0.15339    0.06000    0.96963    1.000
    H110     H        0.16500    0.07610    0.01570    1.000
    C166     C        0.17072    0.06230    0.92045    1.000
    H111     H        0.19380    0.08110    0.93310    1.000
    C167     C        0.15358    0.03650    0.85192    1.000
    H112     H        0.16530    0.03700    0.81890    1.000
    C168     C        0.03252    0.10980    0.63552    1.000
    H113     H        0.02680    0.07500    0.66930    1.000
    C169     C        0.03450    0.22260    0.56491    1.000
    H114     H        0.03050    0.27840    0.54040    1.000
    C170     C        0.05671    0.15600    0.56130    1.000
    H115     H        0.07110    0.15800    0.53330    1.000
    C171     C        0.99106    0.23790    0.63023    1.000
    C172     C        0.96774    0.18650    0.65185    1.000
    H116     H        0.97050    0.12240    0.65740    1.000
    C173     C        0.94000    0.23080    0.66542    1.000
    H117     H        0.92430    0.19590    0.68020    1.000
    C174     C        0.93549    0.32600    0.65731    1.000
    C175     C        0.95974    0.37660    0.63581    1.000
    H118     H        0.95710    0.44070    0.63010    1.000
    C176     C        0.98753    0.33330    0.62292    1.000
    H119     H        0.00370    0.36800    0.60940    1.000
    C177     C        0.90264    0.37776    0.66011    1.000
    C178     C        0.92523    0.77610    0.83253    1.000
    H120     H        0.91730    0.79690    0.78660    1.000
    C179     C        0.94165    0.68370    0.92207    1.000
    H121     H        0.94720    0.63070    0.94970    1.000
    C180     C        0.94218    0.77310    0.94384    1.000
    H122     H        0.94860    0.79200    0.99020    1.000
    C181     C        0.92489    0.61110    0.80234    1.000
    C182     C        0.89318    0.60480    0.75146    1.000
    H123     H        0.87630    0.64980    0.74840    1.000
    C183     C        0.88654    0.53100    0.70473    1.000
    H124     H        0.86490    0.52610    0.67100    1.000
    C184     C        0.91179    0.46406    0.70762    1.000
    C185     C        0.94309    0.47190    0.75920    1.000
    H125     H        0.96020    0.42750    0.76220    1.000
    C186     C        0.94985    0.54500    0.80722    1.000
    H126     H        0.97110    0.54880    0.84210    1.000
    C187     C        0.78317    0.20600    0.78738    1.000
    H127     H        0.77200    0.25890    0.76450    1.000
    C188     C        0.79451    0.07950    0.84707    1.000
    H128     H        0.79220    0.02830    0.87360    1.000
    C189     C        0.82245    0.09860    0.82721    1.000
    H129     H        0.84280    0.06400    0.83720    1.000
    C190     C        0.83693    0.22718    0.75605    1.000
    C191     C        0.82243    0.26850    0.69184    1.000
    H130     H        0.79870    0.26490    0.66970    1.000
    C192     C        0.84350    0.31520    0.66066    1.000
    H131     H        0.83360    0.34410    0.61780    1.000
    C193     C        0.87911    0.31980    0.69187    1.000
    C194     C        0.89282    0.27820    0.75705    1.000
    H132     H        0.91660    0.28130    0.77940    1.000
    C195     C        0.87200    0.23260    0.78914    1.000
    H133     H        0.88160    0.20570    0.83280    1.000
    C196     C        0.82381    0.37600    0.31818    1.000
    H134     H        0.82470    0.31260    0.32780    1.000
    C197     C        0.81296    0.50700    0.26465    1.000
    H135     H        0.80480    0.55090    0.22950    1.000
    C198     C        0.83069    0.52640    0.33168    1.000
    H136     H        0.83700    0.58500    0.35100    1.000
    C199     C        0.85431    0.42800    0.43916    1.000
    C200     C        0.85581    0.33930    0.46658    1.000
    H137     H        0.84680    0.28890    0.43770    1.000
    C201     C        0.87078    0.32680    0.53713    1.000
    H138     H        0.87180    0.26700    0.55530    1.000
    C202     C        0.88435    0.39990    0.58237    1.000
    C203     C        0.88305    0.48690    0.55300    1.000
    H139     H        0.89220    0.53750    0.58160    1.000
    C204     C        0.86833    0.50090    0.48151    1.000
    H140     H        0.86810    0.56010    0.46270    1.000
    C205     C        0.72628    0.03940    0.93741    1.000
    C206     C        0.73476    0.01540    0.01303    1.000
    C207     C        0.74818    0.08510    0.06257    1.000
    H141     H        0.75030    0.14540    0.04770    1.000
    C208     C        0.75834    0.06580    0.13337    1.000
    C209     C        0.77325    0.14080    0.18510    1.000
    C210     C        0.75358    0.97670    0.15376    1.000
    H142     H        0.75920    0.96380    0.20120    1.000
    C211     C        0.74106    0.90740    0.10770    1.000
    H143     H        0.73850    0.84790    0.12340    1.000
    C212     C        0.73184    0.92610    0.03530    1.000
    H144     H        0.72390    0.87850    0.00310    1.000
    Co9      Co       0.58352    0.53469    0.12090    1.000
    Co10     Co       0.22115    0.34562    0.32855    1.000
    O33      O        0.61745    0.51650    0.21551    1.000
    O34      O        0.56909    0.53646    0.24114    1.000
    O35      O        0.61787    0.46793    0.56824    1.000
    O36      O        0.56775    0.46832    0.48492    1.000
    O37      O        0.21979    0.37550    0.42160    1.000
    O38      O        0.22768    0.51940    0.39463    1.000
    O39      O        0.28564    0.28807    0.66300    1.000
    O40      O        0.27415    0.36930    0.74629    1.000
    N33      N        0.55525    0.41632    0.10509    1.000
    N34      N        0.51856    0.30790    0.11229    1.000
    N35      N        0.43174    0.66867    0.38732    1.000
    N36      N        0.43125    0.81193    0.35039    1.000
    N37      N        0.26956    0.35243    0.32212    1.000
    N38      N        0.31500    0.32026    0.28914    1.000
    N39      N        0.30879    0.08740    0.75616    1.000
    N40      N        0.33759    0.05776    0.86571    1.000
    C213     C        0.60009    0.51630    0.25868    1.000
    C214     C        0.61928    0.48980    0.33287    1.000
    C215     C        0.60185    0.49070    0.38244    1.000
    H145     H        0.57860    0.50790    0.36960    1.000
    C216     C        0.61903    0.46596    0.45094    1.000
    C217     C        0.59974    0.46740    0.50356    1.000
    C218     C        0.65339    0.44000    0.46963    1.000
    H146     H        0.66500    0.42390    0.51570    1.000
    C219     C        0.67072    0.43770    0.42045    1.000
    H147     H        0.69380    0.41890    0.43310    1.000
    C220     C        0.65358    0.46350    0.35192    1.000
    H148     H        0.66530    0.46300    0.31890    1.000
    C221     C        0.53252    0.39020    0.13552    1.000
    H149     H        0.52680    0.42500    0.16930    1.000
    C222     C        0.53450    0.27740    0.06491    1.000
    H150     H        0.53050    0.22160    0.04040    1.000
    C223     C        0.55671    0.34400    0.06130    1.000
    H151     H        0.57110    0.34200    0.03330    1.000
    C224     C        0.49106    0.26210    0.13023    1.000
    C225     C        0.46774    0.31350    0.15185    1.000
    H152     H        0.47050    0.37760    0.15740    1.000
    C226     C        0.44000    0.26920    0.16542    1.000
    H153     H        0.42430    0.30410    0.18020    1.000
    C227     C        0.43549    0.17400    0.15731    1.000
    C228     C        0.45974    0.12340    0.13581    1.000
    H154     H        0.45710    0.05930    0.13010    1.000
    C229     C        0.48753    0.16670    0.12292    1.000
    H155     H        0.50370    0.13200    0.10940    1.000
    C230     C        0.40264    0.12224    0.16011    1.000
    C231     C        0.42523    0.72390    0.33253    1.000
    H156     H        0.41730    0.70310    0.28660    1.000
    C232     C        0.44165    0.81630    0.42207    1.000
    H157     H        0.44720    0.86930    0.44970    1.000
    C233     C        0.44218    0.72690    0.44384    1.000
    H158     H        0.44860    0.70800    0.49020    1.000
    C234     C        0.42489    0.88890    0.30234    1.000
    C235     C        0.39318    0.89520    0.25146    1.000
    H159     H        0.37630    0.85020    0.24840    1.000
    C236     C        0.38654    0.96900    0.20473    1.000
    H160     H        0.36490    0.97390    0.17100    1.000
    C237     C        0.41179    0.03594    0.20762    1.000
    C238     C        0.44309    0.02810    0.25920    1.000
    H161     H        0.46020    0.07250    0.26220    1.000
    C239     C        0.44985    0.95500    0.30722    1.000
    H162     H        0.47110    0.95120    0.34210    1.000
    C240     C        0.28317    0.29400    0.28738    1.000
    H163     H        0.27200    0.24110    0.26450    1.000
    C241     C        0.29451    0.42050    0.34707    1.000
    H164     H        0.29220    0.47170    0.37360    1.000
    C242     C        0.32245    0.40140    0.32721    1.000
    H165     H        0.34280    0.43600    0.33720    1.000
    C243     C        0.33693    0.27282    0.25605    1.000
    C244     C        0.32243    0.23150    0.19184    1.000
    H166     H        0.29870    0.23510    0.16970    1.000
    C245     C        0.34350    0.18480    0.16066    1.000
    H167     H        0.33360    0.15590    0.11780    1.000
    C246     C        0.37911    0.18020    0.19187    1.000
    C247     C        0.39282    0.22180    0.25705    1.000
    H168     H        0.41660    0.21870    0.27940    1.000
    C248     C        0.37200    0.26740    0.28914    1.000
    H169     H        0.38160    0.29430    0.33280    1.000
    C249     C        0.32381    0.12400    0.81818    1.000
    H170     H        0.32470    0.18740    0.82780    1.000
    C250     C        0.31296    0.99300    0.76465    1.000
    H171     H        0.30480    0.94910    0.72950    1.000
    C251     C        0.33069    0.97360    0.83168    1.000
    H172     H        0.33700    0.91500    0.85100    1.000
    C252     C        0.35431    0.07200    0.93916    1.000
    C253     C        0.35581    0.16070    0.96658    1.000
    H173     H        0.34680    0.21110    0.93770    1.000
    C254     C        0.37078    0.17320    0.03713    1.000
    H174     H        0.37180    0.23300    0.05530    1.000
    C255     C        0.38435    0.10010    0.08237    1.000
    C256     C        0.38305    0.01310    0.05300    1.000
    H175     H        0.39220    0.96250    0.08160    1.000
    C257     C        0.36833    0.99910    0.98151    1.000
    H176     H        0.36810    0.93990    0.96270    1.000
    C258     C        0.22628    0.46060    0.43741    1.000
    C259     C        0.23476    0.48460    0.51303    1.000
    C260     C        0.24818    0.41490    0.56257    1.000
    H177     H        0.25030    0.35460    0.54770    1.000
    C261     C        0.25834    0.43420    0.63337    1.000
    C262     C        0.27325    0.35920    0.68510    1.000
    C263     C        0.25358    0.52330    0.65376    1.000
    H178     H        0.25920    0.53620    0.70120    1.000
    C264     C        0.24106    0.59260    0.60770    1.000
    H179     H        0.23850    0.65210    0.62340    1.000
    C265     C        0.23184    0.57390    0.53530    1.000
    H180     H        0.22390    0.62150    0.50310    1.000
    Co11     Co       0.08352    0.03469    0.12090    1.000
    Co12     Co       0.72115    0.84562    0.32855    1.000
    O41      O        0.11745    0.01650    0.21551    1.000
    O42      O        0.06909    0.03646    0.24114    1.000
    O43      O        0.11787    0.96793    0.56824    1.000
    O44      O        0.06775    0.96832    0.48492    1.000
    O45      O        0.71979    0.87550    0.42160    1.000
    O46      O        0.72768    0.01940    0.39463    1.000
    O47      O        0.78564    0.78807    0.66300    1.000
    O48      O        0.77415    0.86930    0.74629    1.000
    N41      N        0.05525    0.91632    0.10509    1.000
    N42      N        0.01856    0.80790    0.11229    1.000
    N43      N        0.93174    0.16867    0.38732    1.000
    N44      N        0.93125    0.31193    0.35039    1.000
    N45      N        0.76956    0.85243    0.32212    1.000
    N46      N        0.81500    0.82026    0.28914    1.000
    N47      N        0.80879    0.58740    0.75616    1.000
    N48      N        0.83759    0.55776    0.86571    1.000
    C266     C        0.10009    0.01630    0.25868    1.000
    C267     C        0.11928    0.98980    0.33287    1.000
    C268     C        0.10185    0.99070    0.38244    1.000
    H181     H        0.07860    0.00790    0.36960    1.000
    C269     C        0.11903    0.96596    0.45094    1.000
    C270     C        0.09974    0.96740    0.50356    1.000
    C271     C        0.15339    0.94000    0.46963    1.000
    H182     H        0.16500    0.92390    0.51570    1.000
    C272     C        0.17072    0.93770    0.42045    1.000
    H183     H        0.19380    0.91890    0.43310    1.000
    C273     C        0.15358    0.96350    0.35192    1.000
    H184     H        0.16530    0.96300    0.31890    1.000
    C274     C        0.03252    0.89020    0.13552    1.000
    H185     H        0.02680    0.92500    0.16930    1.000
    C275     C        0.03450    0.77740    0.06491    1.000
    H186     H        0.03050    0.72160    0.04040    1.000
    C276     C        0.05671    0.84400    0.06130    1.000
    H187     H        0.07110    0.84200    0.03330    1.000
    C277     C        0.99106    0.76210    0.13023    1.000
    C278     C        0.96774    0.81350    0.15185    1.000
    H188     H        0.97050    0.87760    0.15740    1.000
    C279     C        0.94000    0.76920    0.16542    1.000
    H189     H        0.92430    0.80410    0.18020    1.000
    C280     C        0.93549    0.67400    0.15731    1.000
    C281     C        0.95974    0.62340    0.13581    1.000
    H190     H        0.95710    0.55930    0.13010    1.000
    C282     C        0.98753    0.66670    0.12292    1.000
    H191     H        0.00370    0.63200    0.10940    1.000
    C283     C        0.90264    0.62224    0.16011    1.000
    C284     C        0.92523    0.22390    0.33253    1.000
    H192     H        0.91730    0.20310    0.28660    1.000
    C285     C        0.94165    0.31630    0.42207    1.000
    H193     H        0.94720    0.36930    0.44970    1.000
    C286     C        0.94218    0.22690    0.44384    1.000
    H194     H        0.94860    0.20800    0.49020    1.000
    C287     C        0.92489    0.38890    0.30234    1.000
    C288     C        0.89318    0.39520    0.25146    1.000
    H195     H        0.87630    0.35020    0.24840    1.000
    C289     C        0.88654    0.46900    0.20473    1.000
    H196     H        0.86490    0.47390    0.17100    1.000
    C290     C        0.91179    0.53594    0.20762    1.000
    C291     C        0.94309    0.52810    0.25920    1.000
    H197     H        0.96020    0.57250    0.26220    1.000
    C292     C        0.94985    0.45500    0.30722    1.000
    H198     H        0.97110    0.45120    0.34210    1.000
    C293     C        0.78317    0.79400    0.28738    1.000
    H199     H        0.77200    0.74110    0.26450    1.000
    C294     C        0.79451    0.92050    0.34707    1.000
    H200     H        0.79220    0.97170    0.37360    1.000
    C295     C        0.82245    0.90140    0.32721    1.000
    H201     H        0.84280    0.93600    0.33720    1.000
    C296     C        0.83693    0.77282    0.25605    1.000
    C297     C        0.82243    0.73150    0.19184    1.000
    H202     H        0.79870    0.73510    0.16970    1.000
    C298     C        0.84350    0.68480    0.16066    1.000
    H203     H        0.83360    0.65590    0.11780    1.000
    C299     C        0.87911    0.68020    0.19187    1.000
    C300     C        0.89282    0.72180    0.25705    1.000
    H204     H        0.91660    0.71870    0.27940    1.000
    C301     C        0.87200    0.76740    0.28914    1.000
    H205     H        0.88160    0.79430    0.33280    1.000
    C302     C        0.82381    0.62400    0.81818    1.000
    H206     H        0.82470    0.68740    0.82780    1.000
    C303     C        0.81296    0.49300    0.76465    1.000
    H207     H        0.80480    0.44910    0.72950    1.000
    C304     C        0.83069    0.47360    0.83168    1.000
    H208     H        0.83700    0.41500    0.85100    1.000
    C305     C        0.85431    0.57200    0.93916    1.000
    C306     C        0.85581    0.66070    0.96658    1.000
    H209     H        0.84680    0.71110    0.93770    1.000
    C307     C        0.87078    0.67320    0.03713    1.000
    H210     H        0.87180    0.73300    0.05530    1.000
    C308     C        0.88435    0.60010    0.08237    1.000
    C309     C        0.88305    0.51310    0.05300    1.000
    H211     H        0.89220    0.46250    0.08160    1.000
    C310     C        0.86833    0.49910    0.98151    1.000
    H212     H        0.86810    0.43990    0.96270    1.000
    C311     C        0.72628    0.96060    0.43741    1.000
    C312     C        0.73476    0.98460    0.51303    1.000
    C313     C        0.74818    0.91490    0.56257    1.000
    H213     H        0.75030    0.85460    0.54770    1.000
    C314     C        0.75834    0.93420    0.63337    1.000
    C315     C        0.77325    0.85920    0.68510    1.000
    C316     C        0.75358    0.02330    0.65376    1.000
    H214     H        0.75920    0.03620    0.70120    1.000
    C317     C        0.74106    0.09260    0.60770    1.000
    H215     H        0.73850    0.15210    0.62340    1.000
    C318     C        0.73184    0.07390    0.53530    1.000
    H216     H        0.72390    0.12150    0.50310    1.000
    Co13     Co       0.41648    0.53469    0.37910    1.000
    Co14     Co       0.77885    0.34562    0.17145    1.000
    O49      O        0.38255    0.51650    0.28449    1.000
    O50      O        0.43091    0.53646    0.25886    1.000
    O51      O        0.38213    0.46793    0.93176    1.000
    O52      O        0.43225    0.46832    0.01508    1.000
    O53      O        0.78021    0.37550    0.07840    1.000
    O54      O        0.77232    0.51940    0.10537    1.000
    O55      O        0.71436    0.28807    0.83700    1.000
    O56      O        0.72585    0.36930    0.75371    1.000
    N49      N        0.44475    0.41632    0.39491    1.000
    N50      N        0.48144    0.30790    0.38771    1.000
    N51      N        0.56826    0.66867    0.11268    1.000
    N52      N        0.56875    0.81193    0.14961    1.000
    N53      N        0.73044    0.35243    0.17788    1.000
    N54      N        0.68500    0.32026    0.21086    1.000
    N55      N        0.69121    0.08740    0.74384    1.000
    N56      N        0.66241    0.05776    0.63429    1.000
    C319     C        0.39991    0.51630    0.24132    1.000
    C320     C        0.38072    0.48980    0.16713    1.000
    C321     C        0.39815    0.49070    0.11756    1.000
    H217     H        0.42140    0.50790    0.13040    1.000
    C322     C        0.38097    0.46596    0.04906    1.000
    C323     C        0.40026    0.46740    0.99644    1.000
    C324     C        0.34661    0.44000    0.03037    1.000
    H218     H        0.33500    0.42390    0.98430    1.000
    C325     C        0.32928    0.43770    0.07955    1.000
    H219     H        0.30620    0.41890    0.06690    1.000
    C326     C        0.34642    0.46350    0.14808    1.000
    H220     H        0.33470    0.46300    0.18110    1.000
    C327     C        0.46748    0.39020    0.36448    1.000
    H221     H        0.47320    0.42500    0.33070    1.000
    C328     C        0.46550    0.27740    0.43509    1.000
    H222     H        0.46950    0.22160    0.45960    1.000
    C329     C        0.44329    0.34400    0.43870    1.000
    H223     H        0.42890    0.34200    0.46670    1.000
    C330     C        0.50894    0.26210    0.36977    1.000
    C331     C        0.53226    0.31350    0.34815    1.000
    H224     H        0.52950    0.37760    0.34260    1.000
    C332     C        0.56000    0.26920    0.33458    1.000
    H225     H        0.57570    0.30410    0.31980    1.000
    C333     C        0.56451    0.17400    0.34269    1.000
    C334     C        0.54026    0.12340    0.36419    1.000
    H226     H        0.54290    0.05930    0.36990    1.000
    C335     C        0.51247    0.16670    0.37708    1.000
    H227     H        0.49630    0.13200    0.39060    1.000
    C336     C        0.59736    0.12224    0.33989    1.000
    C337     C        0.57477    0.72390    0.16747    1.000
    H228     H        0.58270    0.70310    0.21340    1.000
    C338     C        0.55835    0.81630    0.07793    1.000
    H229     H        0.55280    0.86930    0.05030    1.000
    C339     C        0.55782    0.72690    0.05616    1.000
    H230     H        0.55140    0.70800    0.00980    1.000
    C340     C        0.57511    0.88890    0.19766    1.000
    C341     C        0.60682    0.89520    0.24854    1.000
    H231     H        0.62370    0.85020    0.25160    1.000
    C342     C        0.61346    0.96900    0.29527    1.000
    H232     H        0.63510    0.97390    0.32900    1.000
    C343     C        0.58821    0.03594    0.29238    1.000
    C344     C        0.55691    0.02810    0.24080    1.000
    H233     H        0.53980    0.07250    0.23780    1.000
    C345     C        0.55015    0.95500    0.19278    1.000
    H234     H        0.52890    0.95120    0.15790    1.000
    C346     C        0.71683    0.29400    0.21262    1.000
    H235     H        0.72800    0.24110    0.23550    1.000
    C347     C        0.70549    0.42050    0.15293    1.000
    H236     H        0.70780    0.47170    0.12640    1.000
    C348     C        0.67755    0.40140    0.17279    1.000
    H237     H        0.65720    0.43600    0.16280    1.000
    C349     C        0.66307    0.27282    0.24395    1.000
    C350     C        0.67757    0.23150    0.30816    1.000
    H238     H        0.70130    0.23510    0.33030    1.000
    C351     C        0.65650    0.18480    0.33934    1.000
    H239     H        0.66640    0.15590    0.38220    1.000
    C352     C        0.62089    0.18020    0.30813    1.000
    C353     C        0.60718    0.22180    0.24295    1.000
    H240     H        0.58340    0.21870    0.22060    1.000
    C354     C        0.62800    0.26740    0.21086    1.000
    H241     H        0.61840    0.29430    0.16720    1.000
    C355     C        0.67619    0.12400    0.68182    1.000
    H242     H        0.67530    0.18740    0.67220    1.000
    C356     C        0.68704    0.99300    0.73535    1.000
    H243     H        0.69520    0.94910    0.77050    1.000
    C357     C        0.66931    0.97360    0.66832    1.000
    H244     H        0.66300    0.91500    0.64900    1.000
    C358     C        0.64569    0.07200    0.56084    1.000
    C359     C        0.64419    0.16070    0.53342    1.000
    H245     H        0.65320    0.21110    0.56230    1.000
    C360     C        0.62922    0.17320    0.46287    1.000
    H246     H        0.62820    0.23300    0.44470    1.000
    C361     C        0.61565    0.10010    0.41763    1.000
    C362     C        0.61695    0.01310    0.44700    1.000
    H247     H        0.60780    0.96250    0.41840    1.000
    C363     C        0.63167    0.99910    0.51849    1.000
    H248     H        0.63190    0.93990    0.53730    1.000
    C364     C        0.77372    0.46060    0.06259    1.000
    C365     C        0.76524    0.48460    0.98697    1.000
    C366     C        0.75182    0.41490    0.93743    1.000
    H249     H        0.74970    0.35460    0.95230    1.000
    C367     C        0.74166    0.43420    0.86663    1.000
    C368     C        0.72675    0.35920    0.81490    1.000
    C369     C        0.74642    0.52330    0.84624    1.000
    H250     H        0.74080    0.53620    0.79880    1.000
    C370     C        0.75894    0.59260    0.89230    1.000
    H251     H        0.76150    0.65210    0.87660    1.000
    C371     C        0.76816    0.57390    0.96470    1.000
    H252     H        0.77610    0.62150    0.99690    1.000
    Co15     Co       0.91648    0.03469    0.37910    1.000
    Co16     Co       0.27885    0.84562    0.17145    1.000
    O57      O        0.88255    0.01650    0.28449    1.000
    O58      O        0.93091    0.03646    0.25886    1.000
    O59      O        0.88213    0.96793    0.93176    1.000
    O60      O        0.93225    0.96832    0.01508    1.000
    O61      O        0.28021    0.87550    0.07840    1.000
    O62      O        0.27232    0.01940    0.10537    1.000
    O63      O        0.21436    0.78807    0.83700    1.000
    O64      O        0.22585    0.86930    0.75371    1.000
    N57      N        0.94475    0.91632    0.39491    1.000
    N58      N        0.98144    0.80790    0.38771    1.000
    N59      N        0.06826    0.16867    0.11268    1.000
    N60      N        0.06875    0.31193    0.14961    1.000
    N61      N        0.23044    0.85243    0.17788    1.000
    N62      N        0.18500    0.82026    0.21086    1.000
    N63      N        0.19121    0.58740    0.74384    1.000
    N64      N        0.16241    0.55776    0.63429    1.000
    C372     C        0.89991    0.01630    0.24132    1.000
    C373     C        0.88072    0.98980    0.16713    1.000
    C374     C        0.89815    0.99070    0.11756    1.000
    H253     H        0.92140    0.00790    0.13040    1.000
    C375     C        0.88097    0.96596    0.04906    1.000
    C376     C        0.90026    0.96740    0.99644    1.000
    C377     C        0.84661    0.94000    0.03037    1.000
    H254     H        0.83500    0.92390    0.98430    1.000
    C378     C        0.82928    0.93770    0.07955    1.000
    H255     H        0.80620    0.91890    0.06690    1.000
    C379     C        0.84642    0.96350    0.14808    1.000
    H256     H        0.83470    0.96300    0.18110    1.000
    C380     C        0.96748    0.89020    0.36448    1.000
    H257     H        0.97320    0.92500    0.33070    1.000
    C381     C        0.96550    0.77740    0.43509    1.000
    H258     H        0.96950    0.72160    0.45960    1.000
    C382     C        0.94329    0.84400    0.43870    1.000
    H259     H        0.92890    0.84200    0.46670    1.000
    C383     C        0.00894    0.76210    0.36977    1.000
    C384     C        0.03226    0.81350    0.34815    1.000
    H260     H        0.02950    0.87760    0.34260    1.000
    C385     C        0.06000    0.76920    0.33458    1.000
    H261     H        0.07570    0.80410    0.31980    1.000
    C386     C        0.06451    0.67400    0.34269    1.000
    C387     C        0.04026    0.62340    0.36419    1.000
    H262     H        0.04290    0.55930    0.36990    1.000
    C388     C        0.01247    0.66670    0.37708    1.000
    H263     H        0.99630    0.63200    0.39060    1.000
    C389     C        0.09736    0.62224    0.33989    1.000
    C390     C        0.07477    0.22390    0.16747    1.000
    H264     H        0.08270    0.20310    0.21340    1.000
    C391     C        0.05835    0.31630    0.07793    1.000
    H265     H        0.05280    0.36930    0.05030    1.000
    C392     C        0.05782    0.22690    0.05616    1.000
    H266     H        0.05140    0.20800    0.00980    1.000
    C393     C        0.07511    0.38890    0.19766    1.000
    C394     C        0.10682    0.39520    0.24854    1.000
    H267     H        0.12370    0.35020    0.25160    1.000
    C395     C        0.11346    0.46900    0.29527    1.000
    H268     H        0.13510    0.47390    0.32900    1.000
    C396     C        0.08821    0.53594    0.29238    1.000
    C397     C        0.05691    0.52810    0.24080    1.000
    H269     H        0.03980    0.57250    0.23780    1.000
    C398     C        0.05015    0.45500    0.19278    1.000
    H270     H        0.02890    0.45120    0.15790    1.000
    C399     C        0.21683    0.79400    0.21262    1.000
    H271     H        0.22800    0.74110    0.23550    1.000
    C400     C        0.20549    0.92050    0.15293    1.000
    H272     H        0.20780    0.97170    0.12640    1.000
    C401     C        0.17755    0.90140    0.17279    1.000
    H273     H        0.15720    0.93600    0.16280    1.000
    C402     C        0.16307    0.77282    0.24395    1.000
    C403     C        0.17757    0.73150    0.30816    1.000
    H274     H        0.20130    0.73510    0.33030    1.000
    C404     C        0.15650    0.68480    0.33934    1.000
    H275     H        0.16640    0.65590    0.38220    1.000
    C405     C        0.12089    0.68020    0.30813    1.000
    C406     C        0.10718    0.72180    0.24295    1.000
    H276     H        0.08340    0.71870    0.22060    1.000
    C407     C        0.12800    0.76740    0.21086    1.000
    H277     H        0.11840    0.79430    0.16720    1.000
    C408     C        0.17619    0.62400    0.68182    1.000
    H278     H        0.17530    0.68740    0.67220    1.000
    C409     C        0.18704    0.49300    0.73535    1.000
    H279     H        0.19520    0.44910    0.77050    1.000
    C410     C        0.16931    0.47360    0.66832    1.000
    H280     H        0.16300    0.41500    0.64900    1.000
    C411     C        0.14569    0.57200    0.56084    1.000
    C412     C        0.14419    0.66070    0.53342    1.000
    H281     H        0.15320    0.71110    0.56230    1.000
    C413     C        0.12922    0.67320    0.46287    1.000
    H282     H        0.12820    0.73300    0.44470    1.000
    C414     C        0.11565    0.60010    0.41763    1.000
    C415     C        0.11695    0.51310    0.44700    1.000
    H283     H        0.10780    0.46250    0.41840    1.000
    C416     C        0.13167    0.49910    0.51849    1.000
    H284     H        0.13190    0.43990    0.53730    1.000
    C417     C        0.27372    0.96060    0.06259    1.000
    C418     C        0.26524    0.98460    0.98697    1.000
    C419     C        0.25182    0.91490    0.93743    1.000
    H285     H        0.24970    0.85460    0.95230    1.000
    C420     C        0.24166    0.93420    0.86663    1.000
    C421     C        0.22675    0.85920    0.81490    1.000
    C422     C        0.24642    0.02330    0.84624    1.000
    H286     H        0.24080    0.03620    0.79880    1.000
    C423     C        0.25894    0.09260    0.89230    1.000
    H287     H        0.26150    0.15210    0.87660    1.000
    C424     C        0.26816    0.07390    0.96470    1.000
    H288     H        0.27610    0.12150    0.99690    1.000
