# CIF file generated by openbabel 3.1.0, see https://openbabel.org
data_I
_chemical_name_common 'image0'
_cell_length_a 39.826
_cell_length_b 14.012
_cell_length_c 29.269
_cell_angle_alpha 90
_cell_angle_beta 123.206
_cell_angle_gamma 90
_space_group_name_H-M_alt 'P 1'
_space_group_name_Hall 'P 1'
loop_
    _symmetry_equiv_pos_as_xyz
    x,y,z
loop_
    _atom_site_label
    _atom_site_type_symbol
    _atom_site_fract_x
    _atom_site_fract_y
    _atom_site_fract_z
    _atom_site_occupancy
    Zn1      Zn       0.98951    0.47169    0.94510    1.000
    N1       N        0.96463    0.44410    0.86331    1.000
    O1       O        0.04823    0.43770    0.97886    1.000
    O2       O        0.98303    0.34570    0.97300    1.000
    O3       O        0.93825    0.51930    0.94042    1.000
    O4       O        0.00196    0.61210    0.94351    1.000
    C1       C        0.95400    0.34400    0.84970    1.000
    C2       C        0.99283    0.46850    0.84800    1.000
    C3       C        0.92840    0.50070    0.82980    1.000
    C4       C        0.07220    0.44470    0.02970    1.000
    C5       C        0.98753    0.32930    0.01920    1.000
    H1       H        0.93650    0.32440    0.86140    1.000
    H2       H        0.97810    0.30520    0.86880    1.000
    C6       C        0.93230    0.32770    0.78690    1.000
    H3       H        0.01760    0.43330    0.87080    1.000
    H4       H        0.99900    0.53610    0.85400    1.000
    C7       C        0.97500    0.44440    0.78800    1.000
    H5       H        0.93460    0.56770    0.83900    1.000
    H6       H        0.90850    0.48220    0.83740    1.000
    C8       C        0.91130    0.48600    0.76850    1.000
    C9       C        0.11373    0.41190    0.05570    1.000
    C10      C        0.97990    0.22800    0.02820    1.000
    N2       N        0.93404    0.41180    0.76095    1.000
    H7       H        0.94490    0.27530    0.78020    1.000
    H8       H        0.90440    0.31080    0.77170    1.000
    H9       H        0.97600    0.50060    0.76940    1.000
    H10      H        0.99110    0.39510    0.78560    1.000
    H11      H        0.88330    0.46740    0.74970    1.000
    H12      H        0.91270    0.54550    0.75270    1.000
    C11      C        0.12740    0.38120    0.02360    1.000
    C12      C        0.13880    0.41200    0.11150    1.000
    C13      C        0.97140    0.15550    0.99040    1.000
    C14      C        0.98240    0.20720    0.07600    1.000
    Zn2      Zn       0.90635    0.39157    0.67627    1.000
    H13      H        0.11090    0.38150    0.98570    1.000
    C15      C        0.16632    0.35040    0.05030    1.000
    C16      C        0.17590    0.37980    0.13750    1.000
    H14      H        0.12920    0.43580    0.13200    1.000
    H15      H        0.97150    0.16990    0.95950    1.000
    C17      C        0.96300    0.06320    0.99770    1.000
    C18      C        0.97420    0.11290    0.08380    1.000
    H16      H        0.98920    0.25390    0.10220    1.000
    O5       O        0.85568    0.34780    0.66277    1.000
    O6       O        0.92833    0.33530    0.63650    1.000
    N3       N        0.18768    0.31580    0.02968    1.000
    C19      C        0.19200    0.34590    0.10630    1.000
    H17      H        0.19160    0.37870    0.17550    1.000
    H18      H        0.95590    0.01700    0.97110    1.000
    C20      C        0.96530    0.04150    0.04460    1.000
    N4       N        0.97280    0.07440    0.12620    1.000
    H19      H        0.17860    0.31180    0.99550    1.000
    C21      C        0.22647    0.28750    0.07200    1.000
    C22      C        0.23030    0.30400    0.12230    1.000
    C23      C        0.95900    0.95290    0.06650    1.000
    H20      H        0.97690    0.10420    0.15450    1.000
    C24      C        0.96330    0.97710    0.11420    1.000
    C25      C        0.25738    0.24690    0.07020    1.000
    C26      C        0.26600    0.27880    0.17070    1.000
    C27      C        0.94960    0.86120    0.04820    1.000
    C28      C        0.95710    0.91510    0.14590    1.000
    H21      H        0.25430    0.23440    0.03690    1.000
    C29      C        0.29240    0.22560    0.11810    1.000
    C30      C        0.29800    0.24130    0.17010    1.000
    H22      H        0.26840    0.28720    0.20380    1.000
    C31      C        0.94410    0.79330    0.07810    1.000
    H23      H        0.94680    0.84410    0.01550    1.000
    H24      H        0.95880    0.93450    0.17750    1.000
    C32      C        0.94780    0.82090    0.12640    1.000
    C33      C        0.32710    0.18240    0.11810    1.000
    H25      H        0.32220    0.22690    0.20230    1.000
    H26      H        0.93810    0.73040    0.06610    1.000
    C34      C        0.93780    0.74550    0.15610    1.000
    O7       O        0.32532    0.17330    0.07480    1.000
    O8       O        0.93640    0.77440    0.19510    1.000
    Zn3      Zn       0.48951    0.97169    0.94510    1.000
    N5       N        0.46463    0.94410    0.86331    1.000
    O9       O        0.54823    0.93770    0.97886    1.000
    O10      O        0.48303    0.84570    0.97300    1.000
    O11      O        0.43825    0.01930    0.94042    1.000
    O12      O        0.50196    0.11210    0.94351    1.000
    C35      C        0.45400    0.84400    0.84970    1.000
    C36      C        0.49283    0.96850    0.84800    1.000
    C37      C        0.42840    0.00070    0.82980    1.000
    C38      C        0.57220    0.94470    0.02970    1.000
    C39      C        0.48753    0.82930    0.01920    1.000
    H27      H        0.43650    0.82440    0.86140    1.000
    H28      H        0.47810    0.80520    0.86880    1.000
    C40      C        0.43230    0.82770    0.78690    1.000
    H29      H        0.51760    0.93330    0.87080    1.000
    H30      H        0.49900    0.03610    0.85400    1.000
    C41      C        0.47500    0.94440    0.78800    1.000
    H31      H        0.43460    0.06770    0.83900    1.000
    H32      H        0.40850    0.98220    0.83740    1.000
    C42      C        0.41130    0.98600    0.76850    1.000
    C43      C        0.61373    0.91190    0.05570    1.000
    C44      C        0.47990    0.72800    0.02820    1.000
    N6       N        0.43404    0.91180    0.76095    1.000
    H33      H        0.44490    0.77530    0.78020    1.000
    H34      H        0.40440    0.81080    0.77170    1.000
    H35      H        0.47600    0.00060    0.76940    1.000
    H36      H        0.49110    0.89510    0.78560    1.000
    H37      H        0.38330    0.96740    0.74970    1.000
    H38      H        0.41270    0.04550    0.75270    1.000
    C45      C        0.62740    0.88120    0.02360    1.000
    C46      C        0.63880    0.91200    0.11150    1.000
    C47      C        0.47140    0.65550    0.99040    1.000
    C48      C        0.48240    0.70720    0.07600    1.000
    Zn4      Zn       0.40635    0.89157    0.67627    1.000
    H39      H        0.61090    0.88150    0.98570    1.000
    C49      C        0.66632    0.85040    0.05030    1.000
    C50      C        0.67590    0.87980    0.13750    1.000
    H40      H        0.62920    0.93580    0.13200    1.000
    H41      H        0.47150    0.66990    0.95950    1.000
    C51      C        0.46300    0.56320    0.99770    1.000
    C52      C        0.47420    0.61290    0.08380    1.000
    H42      H        0.48920    0.75390    0.10220    1.000
    O13      O        0.35568    0.84780    0.66277    1.000
    O14      O        0.42833    0.83530    0.63650    1.000
    N7       N        0.68768    0.81580    0.02968    1.000
    C53      C        0.69200    0.84590    0.10630    1.000
    H43      H        0.69160    0.87870    0.17550    1.000
    H44      H        0.45590    0.51700    0.97110    1.000
    C54      C        0.46530    0.54150    0.04460    1.000
    N8       N        0.47280    0.57440    0.12620    1.000
    H45      H        0.67860    0.81180    0.99550    1.000
    C55      C        0.72647    0.78750    0.07200    1.000
    C56      C        0.73030    0.80400    0.12230    1.000
    C57      C        0.45900    0.45290    0.06650    1.000
    H46      H        0.47690    0.60420    0.15450    1.000
    C58      C        0.46330    0.47710    0.11420    1.000
    C59      C        0.75738    0.74690    0.07020    1.000
    C60      C        0.76600    0.77880    0.17070    1.000
    C61      C        0.44960    0.36120    0.04820    1.000
    C62      C        0.45710    0.41510    0.14590    1.000
    H47      H        0.75430    0.73440    0.03690    1.000
    C63      C        0.79240    0.72560    0.11810    1.000
    C64      C        0.79800    0.74130    0.17010    1.000
    H48      H        0.76840    0.78720    0.20380    1.000
    C65      C        0.44410    0.29330    0.07810    1.000
    H49      H        0.44680    0.34410    0.01550    1.000
    H50      H        0.45880    0.43450    0.17750    1.000
    C66      C        0.44780    0.32090    0.12640    1.000
    C67      C        0.82710    0.68240    0.11810    1.000
    H51      H        0.82220    0.72690    0.20230    1.000
    H52      H        0.43810    0.23040    0.06610    1.000
    C68      C        0.43780    0.24550    0.15610    1.000
    O15      O        0.82532    0.67330    0.07480    1.000
    O16      O        0.43640    0.27440    0.19510    1.000
    Zn5      Zn       0.01049    0.47169    0.55490    1.000
    N9       N        0.03537    0.44410    0.63669    1.000
    O17      O        0.95177    0.43770    0.52114    1.000
    O18      O        0.01697    0.34570    0.52700    1.000
    O19      O        0.06175    0.51930    0.55958    1.000
    O20      O        0.99804    0.61210    0.55649    1.000
    C69      C        0.04600    0.34400    0.65030    1.000
    C70      C        0.00717    0.46850    0.65200    1.000
    C71      C        0.07160    0.50070    0.67020    1.000
    C72      C        0.92780    0.44470    0.47030    1.000
    C73      C        0.01247    0.32930    0.48080    1.000
    H53      H        0.06350    0.32440    0.63860    1.000
    H54      H        0.02190    0.30520    0.63120    1.000
    C74      C        0.06770    0.32770    0.71310    1.000
    H55      H        0.98240    0.43330    0.62920    1.000
    H56      H        0.00100    0.53610    0.64600    1.000
    C75      C        0.02500    0.44440    0.71200    1.000
    H57      H        0.06540    0.56770    0.66100    1.000
    H58      H        0.09150    0.48220    0.66260    1.000
    C76      C        0.08870    0.48600    0.73150    1.000
    C77      C        0.88627    0.41190    0.44430    1.000
    C78      C        0.02010    0.22800    0.47180    1.000
    N10      N        0.06596    0.41180    0.73905    1.000
    H59      H        0.05510    0.27530    0.71980    1.000
    H60      H        0.09560    0.31080    0.72830    1.000
    H61      H        0.02400    0.50060    0.73060    1.000
    H62      H        0.00890    0.39510    0.71440    1.000
    H63      H        0.11670    0.46740    0.75030    1.000
    H64      H        0.08730    0.54550    0.74730    1.000
    C79      C        0.87260    0.38120    0.47640    1.000
    C80      C        0.86120    0.41200    0.38850    1.000
    C81      C        0.02860    0.15550    0.50960    1.000
    C82      C        0.01760    0.20720    0.42400    1.000
    Zn6      Zn       0.09365    0.39157    0.82373    1.000
    H65      H        0.88910    0.38150    0.51430    1.000
    C83      C        0.83368    0.35040    0.44970    1.000
    C84      C        0.82410    0.37980    0.36250    1.000
    H66      H        0.87080    0.43580    0.36800    1.000
    H67      H        0.02850    0.16990    0.54050    1.000
    C85      C        0.03700    0.06320    0.50230    1.000
    C86      C        0.02580    0.11290    0.41620    1.000
    H68      H        0.01080    0.25390    0.39780    1.000
    O21      O        0.14432    0.34780    0.83723    1.000
    O22      O        0.07167    0.33530    0.86350    1.000
    N11      N        0.81232    0.31580    0.47032    1.000
    C87      C        0.80800    0.34590    0.39370    1.000
    H69      H        0.80840    0.37870    0.32450    1.000
    H70      H        0.04410    0.01700    0.52890    1.000
    C88      C        0.03470    0.04150    0.45540    1.000
    N12      N        0.02720    0.07440    0.37380    1.000
    H71      H        0.82140    0.31180    0.50450    1.000
    C89      C        0.77353    0.28750    0.42800    1.000
    C90      C        0.76970    0.30400    0.37770    1.000
    C91      C        0.04100    0.95290    0.43350    1.000
    H72      H        0.02310    0.10420    0.34550    1.000
    C92      C        0.03670    0.97710    0.38580    1.000
    C93      C        0.74262    0.24690    0.42980    1.000
    C94      C        0.73400    0.27880    0.32930    1.000
    C95      C        0.05040    0.86120    0.45180    1.000
    C96      C        0.04290    0.91510    0.35410    1.000
    H73      H        0.74570    0.23440    0.46310    1.000
    C97      C        0.70760    0.22560    0.38190    1.000
    C98      C        0.70200    0.24130    0.32990    1.000
    H74      H        0.73160    0.28720    0.29620    1.000
    C99      C        0.05590    0.79330    0.42190    1.000
    H75      H        0.05320    0.84410    0.48450    1.000
    H76      H        0.04120    0.93450    0.32250    1.000
    C100     C        0.05220    0.82090    0.37360    1.000
    C101     C        0.67290    0.18240    0.38190    1.000
    H77      H        0.67780    0.22690    0.29770    1.000
    H78      H        0.06190    0.73040    0.43390    1.000
    C102     C        0.06220    0.74550    0.34390    1.000
    O23      O        0.67468    0.17330    0.42520    1.000
    O24      O        0.06360    0.77440    0.30490    1.000
    Zn7      Zn       0.51049    0.97169    0.55490    1.000
    N13      N        0.53537    0.94410    0.63669    1.000
    O25      O        0.45177    0.93770    0.52114    1.000
    O26      O        0.51697    0.84570    0.52700    1.000
    O27      O        0.56175    0.01930    0.55958    1.000
    O28      O        0.49804    0.11210    0.55649    1.000
    C103     C        0.54600    0.84400    0.65030    1.000
    C104     C        0.50717    0.96850    0.65200    1.000
    C105     C        0.57160    0.00070    0.67020    1.000
    C106     C        0.42780    0.94470    0.47030    1.000
    C107     C        0.51247    0.82930    0.48080    1.000
    H79      H        0.56350    0.82440    0.63860    1.000
    H80      H        0.52190    0.80520    0.63120    1.000
    C108     C        0.56770    0.82770    0.71310    1.000
    H81      H        0.48240    0.93330    0.62920    1.000
    H82      H        0.50100    0.03610    0.64600    1.000
    C109     C        0.52500    0.94440    0.71200    1.000
    H83      H        0.56540    0.06770    0.66100    1.000
    H84      H        0.59150    0.98220    0.66260    1.000
    C110     C        0.58870    0.98600    0.73150    1.000
    C111     C        0.38627    0.91190    0.44430    1.000
    C112     C        0.52010    0.72800    0.47180    1.000
    N14      N        0.56596    0.91180    0.73905    1.000
    H85      H        0.55510    0.77530    0.71980    1.000
    H86      H        0.59560    0.81080    0.72830    1.000
    H87      H        0.52400    0.00060    0.73060    1.000
    H88      H        0.50890    0.89510    0.71440    1.000
    H89      H        0.61670    0.96740    0.75030    1.000
    H90      H        0.58730    0.04550    0.74730    1.000
    C113     C        0.37260    0.88120    0.47640    1.000
    C114     C        0.36120    0.91200    0.38850    1.000
    C115     C        0.52860    0.65550    0.50960    1.000
    C116     C        0.51760    0.70720    0.42400    1.000
    Zn8      Zn       0.59365    0.89157    0.82373    1.000
    H91      H        0.38910    0.88150    0.51430    1.000
    C117     C        0.33368    0.85040    0.44970    1.000
    C118     C        0.32410    0.87980    0.36250    1.000
    H92      H        0.37080    0.93580    0.36800    1.000
    H93      H        0.52850    0.66990    0.54050    1.000
    C119     C        0.53700    0.56320    0.50230    1.000
    C120     C        0.52580    0.61290    0.41620    1.000
    H94      H        0.51080    0.75390    0.39780    1.000
    O29      O        0.64432    0.84780    0.83723    1.000
    O30      O        0.57167    0.83530    0.86350    1.000
    N15      N        0.31232    0.81580    0.47032    1.000
    C121     C        0.30800    0.84590    0.39370    1.000
    H95      H        0.30840    0.87870    0.32450    1.000
    H96      H        0.54410    0.51700    0.52890    1.000
    C122     C        0.53470    0.54150    0.45540    1.000
    N16      N        0.52720    0.57440    0.37380    1.000
    H97      H        0.32140    0.81180    0.50450    1.000
    C123     C        0.27353    0.78750    0.42800    1.000
    C124     C        0.26970    0.80400    0.37770    1.000
    C125     C        0.54100    0.45290    0.43350    1.000
    H98      H        0.52310    0.60420    0.34550    1.000
    C126     C        0.53670    0.47710    0.38580    1.000
    C127     C        0.24262    0.74690    0.42980    1.000
    C128     C        0.23400    0.77880    0.32930    1.000
    C129     C        0.55040    0.36120    0.45180    1.000
    C130     C        0.54290    0.41510    0.35410    1.000
    H99      H        0.24570    0.73440    0.46310    1.000
    C131     C        0.20760    0.72560    0.38190    1.000
    C132     C        0.20200    0.74130    0.32990    1.000
    H100     H        0.23160    0.78720    0.29620    1.000
    C133     C        0.55590    0.29330    0.42190    1.000
    H101     H        0.55320    0.34410    0.48450    1.000
    H102     H        0.54120    0.43450    0.32250    1.000
    C134     C        0.55220    0.32090    0.37360    1.000
    C135     C        0.17290    0.68240    0.38190    1.000
    H103     H        0.17780    0.72690    0.29770    1.000
    H104     H        0.56190    0.23040    0.43390    1.000
    C136     C        0.56220    0.24550    0.34390    1.000
    O31      O        0.17468    0.67330    0.42520    1.000
    O32      O        0.56360    0.27440    0.30490    1.000
    Zn9      Zn       0.01049    0.52831    0.05490    1.000
    N17      N        0.03537    0.55590    0.13669    1.000
    O33      O        0.95177    0.56230    0.02114    1.000
    O34      O        0.01697    0.65430    0.02700    1.000
    O35      O        0.06175    0.48070    0.05958    1.000
    O36      O        0.99804    0.38790    0.05649    1.000
    C137     C        0.04600    0.65600    0.15030    1.000
    C138     C        0.00717    0.53150    0.15200    1.000
    C139     C        0.07160    0.49930    0.17020    1.000
    C140     C        0.92780    0.55530    0.97030    1.000
    C141     C        0.01247    0.67070    0.98080    1.000
    H105     H        0.06350    0.67560    0.13860    1.000
    H106     H        0.02190    0.69480    0.13120    1.000
    C142     C        0.06770    0.67230    0.21310    1.000
    H107     H        0.98240    0.56670    0.12920    1.000
    H108     H        0.00100    0.46390    0.14600    1.000
    C143     C        0.02500    0.55560    0.21200    1.000
    H109     H        0.06540    0.43230    0.16100    1.000
    H110     H        0.09150    0.51780    0.16260    1.000
    C144     C        0.08870    0.51400    0.23150    1.000
    C145     C        0.88627    0.58810    0.94430    1.000
    C146     C        0.02010    0.77200    0.97180    1.000
    N18      N        0.06596    0.58820    0.23905    1.000
    H111     H        0.05510    0.72470    0.21980    1.000
    H112     H        0.09560    0.68920    0.22830    1.000
    H113     H        0.02400    0.49940    0.23060    1.000
    H114     H        0.00890    0.60490    0.21440    1.000
    H115     H        0.11670    0.53260    0.25030    1.000
    H116     H        0.08730    0.45450    0.24730    1.000
    C147     C        0.87260    0.61880    0.97640    1.000
    C148     C        0.86120    0.58800    0.88850    1.000
    C149     C        0.02860    0.84450    0.00960    1.000
    C150     C        0.01760    0.79280    0.92400    1.000
    Zn10     Zn       0.09365    0.60843    0.32373    1.000
    H117     H        0.88910    0.61850    0.01430    1.000
    C151     C        0.83368    0.64960    0.94970    1.000
    C152     C        0.82410    0.62020    0.86250    1.000
    H118     H        0.87080    0.56420    0.86800    1.000
    H119     H        0.02850    0.83010    0.04050    1.000
    C153     C        0.03700    0.93680    0.00230    1.000
    C154     C        0.02580    0.88710    0.91620    1.000
    H120     H        0.01080    0.74610    0.89780    1.000
    O37      O        0.14432    0.65220    0.33723    1.000
    O38      O        0.07167    0.66470    0.36350    1.000
    N19      N        0.81232    0.68420    0.97032    1.000
    C155     C        0.80800    0.65410    0.89370    1.000
    H121     H        0.80840    0.62130    0.82450    1.000
    H122     H        0.04410    0.98300    0.02890    1.000
    C156     C        0.03470    0.95850    0.95540    1.000
    N20      N        0.02720    0.92560    0.87380    1.000
    H123     H        0.82140    0.68820    0.00450    1.000
    C157     C        0.77353    0.71250    0.92800    1.000
    C158     C        0.76970    0.69600    0.87770    1.000
    C159     C        0.04100    0.04710    0.93350    1.000
    H124     H        0.02310    0.89580    0.84550    1.000
    C160     C        0.03670    0.02290    0.88580    1.000
    C161     C        0.74262    0.75310    0.92980    1.000
    C162     C        0.73400    0.72120    0.82930    1.000
    C163     C        0.05040    0.13880    0.95180    1.000
    C164     C        0.04290    0.08490    0.85410    1.000
    H125     H        0.74570    0.76560    0.96310    1.000
    C165     C        0.70760    0.77440    0.88190    1.000
    C166     C        0.70200    0.75870    0.82990    1.000
    H126     H        0.73160    0.71280    0.79620    1.000
    C167     C        0.05590    0.20670    0.92190    1.000
    H127     H        0.05320    0.15590    0.98450    1.000
    H128     H        0.04120    0.06550    0.82250    1.000
    C168     C        0.05220    0.17910    0.87360    1.000
    C169     C        0.67290    0.81760    0.88190    1.000
    H129     H        0.67780    0.77310    0.79770    1.000
    H130     H        0.06190    0.26960    0.93390    1.000
    C170     C        0.06220    0.25450    0.84390    1.000
    O39      O        0.67468    0.82670    0.92520    1.000
    O40      O        0.06360    0.22560    0.80490    1.000
    Zn11     Zn       0.51049    0.02831    0.05490    1.000
    N21      N        0.53537    0.05590    0.13669    1.000
    O41      O        0.45177    0.06230    0.02114    1.000
    O42      O        0.51697    0.15430    0.02700    1.000
    O43      O        0.56175    0.98070    0.05958    1.000
    O44      O        0.49804    0.88790    0.05649    1.000
    C171     C        0.54600    0.15600    0.15030    1.000
    C172     C        0.50717    0.03150    0.15200    1.000
    C173     C        0.57160    0.99930    0.17020    1.000
    C174     C        0.42780    0.05530    0.97030    1.000
    C175     C        0.51247    0.17070    0.98080    1.000
    H131     H        0.56350    0.17560    0.13860    1.000
    H132     H        0.52190    0.19480    0.13120    1.000
    C176     C        0.56770    0.17230    0.21310    1.000
    H133     H        0.48240    0.06670    0.12920    1.000
    H134     H        0.50100    0.96390    0.14600    1.000
    C177     C        0.52500    0.05560    0.21200    1.000
    H135     H        0.56540    0.93230    0.16100    1.000
    H136     H        0.59150    0.01780    0.16260    1.000
    C178     C        0.58870    0.01400    0.23150    1.000
    C179     C        0.38627    0.08810    0.94430    1.000
    C180     C        0.52010    0.27200    0.97180    1.000
    N22      N        0.56596    0.08820    0.23905    1.000
    H137     H        0.55510    0.22470    0.21980    1.000
    H138     H        0.59560    0.18920    0.22830    1.000
    H139     H        0.52400    0.99940    0.23060    1.000
    H140     H        0.50890    0.10490    0.21440    1.000
    H141     H        0.61670    0.03260    0.25030    1.000
    H142     H        0.58730    0.95450    0.24730    1.000
    C181     C        0.37260    0.11880    0.97640    1.000
    C182     C        0.36120    0.08800    0.88850    1.000
    C183     C        0.52860    0.34450    0.00960    1.000
    C184     C        0.51760    0.29280    0.92400    1.000
    Zn12     Zn       0.59365    0.10843    0.32373    1.000
    H143     H        0.38910    0.11850    0.01430    1.000
    C185     C        0.33368    0.14960    0.94970    1.000
    C186     C        0.32410    0.12020    0.86250    1.000
    H144     H        0.37080    0.06420    0.86800    1.000
    H145     H        0.52850    0.33010    0.04050    1.000
    C187     C        0.53700    0.43680    0.00230    1.000
    C188     C        0.52580    0.38710    0.91620    1.000
    H146     H        0.51080    0.24610    0.89780    1.000
    O45      O        0.64432    0.15220    0.33723    1.000
    O46      O        0.57167    0.16470    0.36350    1.000
    N23      N        0.31232    0.18420    0.97032    1.000
    C189     C        0.30800    0.15410    0.89370    1.000
    H147     H        0.30840    0.12130    0.82450    1.000
    H148     H        0.54410    0.48300    0.02890    1.000
    C190     C        0.53470    0.45850    0.95540    1.000
    N24      N        0.52720    0.42560    0.87380    1.000
    H149     H        0.32140    0.18820    0.00450    1.000
    C191     C        0.27353    0.21250    0.92800    1.000
    C192     C        0.26970    0.19600    0.87770    1.000
    C193     C        0.54100    0.54710    0.93350    1.000
    H150     H        0.52310    0.39580    0.84550    1.000
    C194     C        0.53670    0.52290    0.88580    1.000
    C195     C        0.24262    0.25310    0.92980    1.000
    C196     C        0.23400    0.22120    0.82930    1.000
    C197     C        0.55040    0.63880    0.95180    1.000
    C198     C        0.54290    0.58490    0.85410    1.000
    H151     H        0.24570    0.26560    0.96310    1.000
    C199     C        0.20760    0.27440    0.88190    1.000
    C200     C        0.20200    0.25870    0.82990    1.000
    H152     H        0.23160    0.21280    0.79620    1.000
    C201     C        0.55590    0.70670    0.92190    1.000
    H153     H        0.55320    0.65590    0.98450    1.000
    H154     H        0.54120    0.56550    0.82250    1.000
    C202     C        0.55220    0.67910    0.87360    1.000
    C203     C        0.17290    0.31760    0.88190    1.000
    H155     H        0.17780    0.27310    0.79770    1.000
    H156     H        0.56190    0.76960    0.93390    1.000
    C204     C        0.56220    0.75450    0.84390    1.000
    O47      O        0.17468    0.32670    0.92520    1.000
    O48      O        0.56360    0.72560    0.80490    1.000
    Zn13     Zn       0.98951    0.52831    0.44510    1.000
    N25      N        0.96463    0.55590    0.36331    1.000
    O49      O        0.04823    0.56230    0.47886    1.000
    O50      O        0.98303    0.65430    0.47300    1.000
    O51      O        0.93825    0.48070    0.44042    1.000
    O52      O        0.00196    0.38790    0.44351    1.000
    C205     C        0.95400    0.65600    0.34970    1.000
    C206     C        0.99283    0.53150    0.34800    1.000
    C207     C        0.92840    0.49930    0.32980    1.000
    C208     C        0.07220    0.55530    0.52970    1.000
    C209     C        0.98753    0.67070    0.51920    1.000
    H157     H        0.93650    0.67560    0.36140    1.000
    H158     H        0.97810    0.69480    0.36880    1.000
    C210     C        0.93230    0.67230    0.28690    1.000
    H159     H        0.01760    0.56670    0.37080    1.000
    H160     H        0.99900    0.46390    0.35400    1.000
    C211     C        0.97500    0.55560    0.28800    1.000
    H161     H        0.93460    0.43230    0.33900    1.000
    H162     H        0.90850    0.51780    0.33740    1.000
    C212     C        0.91130    0.51400    0.26850    1.000
    C213     C        0.11373    0.58810    0.55570    1.000
    C214     C        0.97990    0.77200    0.52820    1.000
    N26      N        0.93404    0.58820    0.26095    1.000
    H163     H        0.94490    0.72470    0.28020    1.000
    H164     H        0.90440    0.68920    0.27170    1.000
    H165     H        0.97600    0.49940    0.26940    1.000
    H166     H        0.99110    0.60490    0.28560    1.000
    H167     H        0.88330    0.53260    0.24970    1.000
    H168     H        0.91270    0.45450    0.25270    1.000
    C215     C        0.12740    0.61880    0.52360    1.000
    C216     C        0.13880    0.58800    0.61150    1.000
    C217     C        0.97140    0.84450    0.49040    1.000
    C218     C        0.98240    0.79280    0.57600    1.000
    Zn14     Zn       0.90635    0.60843    0.17627    1.000
    H169     H        0.11090    0.61850    0.48570    1.000
    C219     C        0.16632    0.64960    0.55030    1.000
    C220     C        0.17590    0.62020    0.63750    1.000
    H170     H        0.12920    0.56420    0.63200    1.000
    H171     H        0.97150    0.83010    0.45950    1.000
    C221     C        0.96300    0.93680    0.49770    1.000
    C222     C        0.97420    0.88710    0.58380    1.000
    H172     H        0.98920    0.74610    0.60220    1.000
    O53      O        0.85568    0.65220    0.16277    1.000
    O54      O        0.92833    0.66470    0.13650    1.000
    N27      N        0.18768    0.68420    0.52968    1.000
    C223     C        0.19200    0.65410    0.60630    1.000
    H173     H        0.19160    0.62130    0.67550    1.000
    H174     H        0.95590    0.98300    0.47110    1.000
    C224     C        0.96530    0.95850    0.54460    1.000
    N28      N        0.97280    0.92560    0.62620    1.000
    H175     H        0.17860    0.68820    0.49550    1.000
    C225     C        0.22647    0.71250    0.57200    1.000
    C226     C        0.23030    0.69600    0.62230    1.000
    C227     C        0.95900    0.04710    0.56650    1.000
    H176     H        0.97690    0.89580    0.65450    1.000
    C228     C        0.96330    0.02290    0.61420    1.000
    C229     C        0.25738    0.75310    0.57020    1.000
    C230     C        0.26600    0.72120    0.67070    1.000
    C231     C        0.94960    0.13880    0.54820    1.000
    C232     C        0.95710    0.08490    0.64590    1.000
    H177     H        0.25430    0.76560    0.53690    1.000
    C233     C        0.29240    0.77440    0.61810    1.000
    C234     C        0.29800    0.75870    0.67010    1.000
    H178     H        0.26840    0.71280    0.70380    1.000
    C235     C        0.94410    0.20670    0.57810    1.000
    H179     H        0.94680    0.15590    0.51550    1.000
    H180     H        0.95880    0.06550    0.67750    1.000
    C236     C        0.94780    0.17910    0.62640    1.000
    C237     C        0.32710    0.81760    0.61810    1.000
    H181     H        0.32220    0.77310    0.70230    1.000
    H182     H        0.93810    0.26960    0.56610    1.000
    C238     C        0.93780    0.25450    0.65610    1.000
    O55      O        0.32532    0.82670    0.57480    1.000
    O56      O        0.93640    0.22560    0.69510    1.000
    Zn15     Zn       0.48951    0.02831    0.44510    1.000
    N29      N        0.46463    0.05590    0.36331    1.000
    O57      O        0.54823    0.06230    0.47886    1.000
    O58      O        0.48303    0.15430    0.47300    1.000
    O59      O        0.43825    0.98070    0.44042    1.000
    O60      O        0.50196    0.88790    0.44351    1.000
    C239     C        0.45400    0.15600    0.34970    1.000
    C240     C        0.49283    0.03150    0.34800    1.000
    C241     C        0.42840    0.99930    0.32980    1.000
    C242     C        0.57220    0.05530    0.52970    1.000
    C243     C        0.48753    0.17070    0.51920    1.000
    H183     H        0.43650    0.17560    0.36140    1.000
    H184     H        0.47810    0.19480    0.36880    1.000
    C244     C        0.43230    0.17230    0.28690    1.000
    H185     H        0.51760    0.06670    0.37080    1.000
    H186     H        0.49900    0.96390    0.35400    1.000
    C245     C        0.47500    0.05560    0.28800    1.000
    H187     H        0.43460    0.93230    0.33900    1.000
    H188     H        0.40850    0.01780    0.33740    1.000
    C246     C        0.41130    0.01400    0.26850    1.000
    C247     C        0.61373    0.08810    0.55570    1.000
    C248     C        0.47990    0.27200    0.52820    1.000
    N30      N        0.43404    0.08820    0.26095    1.000
    H189     H        0.44490    0.22470    0.28020    1.000
    H190     H        0.40440    0.18920    0.27170    1.000
    H191     H        0.47600    0.99940    0.26940    1.000
    H192     H        0.49110    0.10490    0.28560    1.000
    H193     H        0.38330    0.03260    0.24970    1.000
    H194     H        0.41270    0.95450    0.25270    1.000
    C249     C        0.62740    0.11880    0.52360    1.000
    C250     C        0.63880    0.08800    0.61150    1.000
    C251     C        0.47140    0.34450    0.49040    1.000
    C252     C        0.48240    0.29280    0.57600    1.000
    Zn16     Zn       0.40635    0.10843    0.17627    1.000
    H195     H        0.61090    0.11850    0.48570    1.000
    C253     C        0.66632    0.14960    0.55030    1.000
    C254     C        0.67590    0.12020    0.63750    1.000
    H196     H        0.62920    0.06420    0.63200    1.000
    H197     H        0.47150    0.33010    0.45950    1.000
    C255     C        0.46300    0.43680    0.49770    1.000
    C256     C        0.47420    0.38710    0.58380    1.000
    H198     H        0.48920    0.24610    0.60220    1.000
    O61      O        0.35568    0.15220    0.16277    1.000
    O62      O        0.42833    0.16470    0.13650    1.000
    N31      N        0.68768    0.18420    0.52968    1.000
    C257     C        0.69200    0.15410    0.60630    1.000
    H199     H        0.69160    0.12130    0.67550    1.000
    H200     H        0.45590    0.48300    0.47110    1.000
    C258     C        0.46530    0.45850    0.54460    1.000
    N32      N        0.47280    0.42560    0.62620    1.000
    H201     H        0.67860    0.18820    0.49550    1.000
    C259     C        0.72647    0.21250    0.57200    1.000
    C260     C        0.73030    0.19600    0.62230    1.000
    C261     C        0.45900    0.54710    0.56650    1.000
    H202     H        0.47690    0.39580    0.65450    1.000
    C262     C        0.46330    0.52290    0.61420    1.000
    C263     C        0.75738    0.25310    0.57020    1.000
    C264     C        0.76600    0.22120    0.67070    1.000
    C265     C        0.44960    0.63880    0.54820    1.000
    C266     C        0.45710    0.58490    0.64590    1.000
    H203     H        0.75430    0.26560    0.53690    1.000
    C267     C        0.79240    0.27440    0.61810    1.000
    C268     C        0.79800    0.25870    0.67010    1.000
    H204     H        0.76840    0.21280    0.70380    1.000
    C269     C        0.44410    0.70670    0.57810    1.000
    H205     H        0.44680    0.65590    0.51550    1.000
    H206     H        0.45880    0.56550    0.67750    1.000
    C270     C        0.44780    0.67910    0.62640    1.000
    C271     C        0.82710    0.31760    0.61810    1.000
    H207     H        0.82220    0.27310    0.70230    1.000
    H208     H        0.43810    0.76960    0.56610    1.000
    C272     C        0.43780    0.75450    0.65610    1.000
    O63      O        0.82532    0.32670    0.57480    1.000
    O64      O        0.43640    0.72560    0.69510    1.000
