# CIF file generated by openbabel 3.1.0, see https://openbabel.org
data_I
_chemical_name_common 'image0'
_cell_length_a 11.722
_cell_length_b 11.722
_cell_length_c 23.74
_cell_angle_alpha 90
_cell_angle_beta 90
_cell_angle_gamma 90
_space_group_name_H-M_alt 'P 1'
_space_group_name_Hall 'P 1'
loop_
    _symmetry_equiv_pos_as_xyz
    x,y,z
loop_
    _atom_site_label
    _atom_site_type_symbol
    _atom_site_fract_x
    _atom_site_fract_y
    _atom_site_fract_z
    _atom_site_occupancy
    O1       O        0.40650    0.11930    0.05970    1.000
    C1       C        0.39860    0.35880    0.18840    1.000
    C2       C        0.39910    0.27350    0.14390    1.000
    H1       H        0.32860    0.38790    0.20250    1.000
    H2       H        0.32990    0.24320    0.12940    1.000
    O2       O        0.59350    0.88070    0.05970    1.000
    C3       C        0.60140    0.64120    0.18840    1.000
    C4       C        0.60090    0.72650    0.14390    1.000
    H3       H        0.67140    0.61210    0.20250    1.000
    H4       H        0.67010    0.75680    0.12940    1.000
    O3       O        0.88070    0.40650    0.55970    1.000
    C5       C        0.64120    0.39860    0.68840    1.000
    C6       C        0.72650    0.39910    0.64390    1.000
    H5       H        0.61210    0.32860    0.70250    1.000
    H6       H        0.75680    0.32990    0.62940    1.000
    O4       O        0.11930    0.59350    0.55970    1.000
    C7       C        0.35880    0.60140    0.68840    1.000
    C8       C        0.27350    0.60090    0.64390    1.000
    H7       H        0.38790    0.67140    0.70250    1.000
    H8       H        0.24320    0.67010    0.62940    1.000
    O5       O        0.59350    0.11930    0.94030    1.000
    C9       C        0.60140    0.35880    0.81160    1.000
    C10      C        0.60090    0.27350    0.85610    1.000
    H9       H        0.67140    0.38790    0.79750    1.000
    H10      H        0.67010    0.24320    0.87060    1.000
    O6       O        0.40650    0.88070    0.94030    1.000
    C11      C        0.39860    0.64120    0.81160    1.000
    C12      C        0.39910    0.72650    0.85610    1.000
    H11      H        0.32860    0.61210    0.79750    1.000
    H12      H        0.32990    0.75680    0.87060    1.000
    O7       O        0.11930    0.40650    0.44030    1.000
    C13      C        0.35880    0.39860    0.31160    1.000
    C14      C        0.27350    0.39910    0.35610    1.000
    H13      H        0.38790    0.32860    0.29750    1.000
    H14      H        0.24320    0.32990    0.37060    1.000
    O8       O        0.88070    0.59350    0.44030    1.000
    C15      C        0.64120    0.60140    0.31160    1.000
    C16      C        0.72650    0.60090    0.35610    1.000
    H15      H        0.61210    0.67140    0.29750    1.000
    H16      H        0.75680    0.67010    0.37060    1.000
    O9       O        0.59350    0.88070    0.94030    1.000
    C17      C        0.60140    0.64120    0.81160    1.000
    C18      C        0.60090    0.72650    0.85610    1.000
    H17      H        0.67140    0.61210    0.79750    1.000
    H18      H        0.67010    0.75680    0.87060    1.000
    O10      O        0.40650    0.11930    0.94030    1.000
    C19      C        0.39860    0.35880    0.81160    1.000
    C20      C        0.39910    0.27350    0.85610    1.000
    H19      H        0.32860    0.38790    0.79750    1.000
    H20      H        0.32990    0.24320    0.87060    1.000
    O11      O        0.11930    0.59350    0.44030    1.000
    C21      C        0.35880    0.60140    0.31160    1.000
    C22      C        0.27350    0.60090    0.35610    1.000
    H21      H        0.38790    0.67140    0.29750    1.000
    H22      H        0.24320    0.67010    0.37060    1.000
    O12      O        0.88070    0.40650    0.44030    1.000
    C23      C        0.64120    0.39860    0.31160    1.000
    C24      C        0.72650    0.39910    0.35610    1.000
    H23      H        0.61210    0.32860    0.29750    1.000
    H24      H        0.75680    0.32990    0.37060    1.000
    O13      O        0.40650    0.88070    0.05970    1.000
    C25      C        0.39860    0.64120    0.18840    1.000
    C26      C        0.39910    0.72650    0.14390    1.000
    H25      H        0.32860    0.61210    0.20250    1.000
    H26      H        0.32990    0.75680    0.12940    1.000
    O14      O        0.59350    0.11930    0.05970    1.000
    C27      C        0.60140    0.35880    0.18840    1.000
    C28      C        0.60090    0.27350    0.14390    1.000
    H27      H        0.67140    0.38790    0.20250    1.000
    H28      H        0.67010    0.24320    0.12940    1.000
    O15      O        0.88070    0.59350    0.55970    1.000
    C29      C        0.64120    0.60140    0.68840    1.000
    C30      C        0.72650    0.60090    0.64390    1.000
    H29      H        0.61210    0.67140    0.70250    1.000
    H30      H        0.75680    0.67010    0.62940    1.000
    O16      O        0.11930    0.40650    0.55970    1.000
    C31      C        0.35880    0.39860    0.68840    1.000
    C32      C        0.27350    0.39910    0.64390    1.000
    H31      H        0.38790    0.32860    0.70250    1.000
    H32      H        0.24320    0.32990    0.62940    1.000
    Zn1      Zn       0.37430    0.00000    0.00000    1.000
    O17      O        0.21400    0.00000    0.00000    1.000
    Zn2      Zn       0.62570    0.00000    0.00000    1.000
    O18      O        0.78600    0.00000    0.00000    1.000
    Zn3      Zn       0.00000    0.37430    0.50000    1.000
    O19      O        0.00000    0.21400    0.50000    1.000
    Zn4      Zn       0.00000    0.62570    0.50000    1.000
    O20      O        0.00000    0.78600    0.50000    1.000
    C33      C        0.50000    0.50000    0.25000    1.000
    C34      C        0.50000    0.50000    0.75000    1.000
    C35      C        0.50000    0.39640    0.20970    1.000
    C36      C        0.50000    0.23920    0.12410    1.000
    C37      C        0.50000    0.15020    0.07740    1.000
    C38      C        0.50000    0.60360    0.20970    1.000
    C39      C        0.50000    0.76080    0.12410    1.000
    C40      C        0.50000    0.84980    0.07740    1.000
    C41      C        0.60360    0.50000    0.70970    1.000
    C42      C        0.76080    0.50000    0.62410    1.000
    C43      C        0.84980    0.50000    0.57740    1.000
    C44      C        0.39640    0.50000    0.70970    1.000
    C45      C        0.23920    0.50000    0.62410    1.000
    C46      C        0.15020    0.50000    0.57740    1.000
    C47      C        0.50000    0.39640    0.79030    1.000
    C48      C        0.50000    0.23920    0.87590    1.000
    C49      C        0.50000    0.15020    0.92260    1.000
    C50      C        0.50000    0.60360    0.79030    1.000
    C51      C        0.50000    0.76080    0.87590    1.000
    C52      C        0.50000    0.84980    0.92260    1.000
    C53      C        0.39640    0.50000    0.29030    1.000
    C54      C        0.23920    0.50000    0.37590    1.000
    C55      C        0.15020    0.50000    0.42260    1.000
    C56      C        0.60360    0.50000    0.29030    1.000
    C57      C        0.76080    0.50000    0.37590    1.000
    C58      C        0.84980    0.50000    0.42260    1.000
    C59      C        0.38200    0.12000    0.00000    1.000
    C60      C        0.24800    0.06600    0.00000    1.000
    H33      H        0.14310    0.05330    0.00000    1.000
    C61      C        0.61800    0.88000    0.00000    1.000
    C62      C        0.75200    0.93400    0.00000    1.000
    H34      H        0.85690    0.94670    0.00000    1.000
    C63      C        0.88000    0.38200    0.50000    1.000
    C64      C        0.93400    0.24800    0.50000    1.000
    H35      H        0.94670    0.14310    0.50000    1.000
    C65      C        0.12000    0.61800    0.50000    1.000
    C66      C        0.06600    0.75200    0.50000    1.000
    H36      H        0.05330    0.85690    0.50000    1.000
    C67      C        0.61800    0.12000    0.00000    1.000
    C68      C        0.75200    0.06600    0.00000    1.000
    H37      H        0.85690    0.05330    0.00000    1.000
    C69      C        0.38200    0.88000    0.00000    1.000
    C70      C        0.24800    0.93400    0.00000    1.000
    H38      H        0.14310    0.94670    0.00000    1.000
    C71      C        0.12000    0.38200    0.50000    1.000
    C72      C        0.06600    0.24800    0.50000    1.000
    H39      H        0.05330    0.14310    0.50000    1.000
    C73      C        0.88000    0.61800    0.50000    1.000
    C74      C        0.93400    0.75200    0.50000    1.000
    H40      H        0.94670    0.85690    0.50000    1.000
    C75      C        0.50000    0.00000    0.00000    1.000
    C76      C        0.00000    0.50000    0.50000    1.000
    C77      C        0.50000    0.00000    0.06900    1.000
    C78      C        0.00000    0.50000    0.56900    1.000
    C79      C        0.50000    0.00000    0.93100    1.000
    C80      C        0.00000    0.50000    0.43100    1.000
