# CIF file generated by openbabel 3.1.0, see https://openbabel.org
data_I
_chemical_name_common 'IYUHIU_ion_b'
_cell_length_a 29.756
_cell_length_b 14.5284
_cell_length_c 29.7388
_cell_angle_alpha 90
_cell_angle_beta 90
_cell_angle_gamma 90
_space_group_name_H-M_alt 'P 1'
_space_group_name_Hall 'P 1'
loop_
    _symmetry_equiv_pos_as_xyz
    x,y,z
loop_
    _atom_site_label
    _atom_site_type_symbol
    _atom_site_fract_x
    _atom_site_fract_y
    _atom_site_fract_z
    _atom_site_occupancy
    In1      In       0.87423    0.13212    0.69376    1.000
    In2      In       0.09532    0.12321    0.91191    1.000
    In3      In       0.69420    0.87096    0.85213    1.000
    O4       O        0.72173    0.99520    0.83420    1.000
    O5       O        0.12819    0.91884    0.93378    1.000
    O6       O        0.08225    0.87590    0.65835    1.000
    O7       O        0.06605    0.00778    0.94251    1.000
    O8       O        0.14591    0.94648    0.68272    1.000
    O9       O        0.09670    0.03419    0.85965    1.000
    O10      O        0.84738    0.00718    0.71122    1.000
    O11      O        0.93169    0.06710    0.67840    1.000
    O12      O        0.82651    0.11678    0.41552    1.000
    O13      O        0.05686    0.15207    0.85814    1.000
    O14      O        0.75923    0.14563    0.40143    1.000
    O15      O        0.74034    0.82860    0.80939    1.000
    O16      O        0.92534    0.14893    0.73637    1.000
    O17      O        0.83458    0.17395    0.74291    1.000
    O18      O        0.95192    0.82688    0.04808    1.000
    O19      O        0.63861    0.14818    0.53710    1.000
    O20      O        0.68839    0.07582    0.89070    1.000
    O21      O        0.66091    0.09787    0.59803    1.000
    O22      O        0.82946    0.11612    0.64097    1.000
    O23      O        0.87814    0.12939    0.58252    1.000
    O24      O        0.87437    0.92703    0.65121    1.000
    C25      C        0.06977    0.08207    0.83648    1.000
    C26      C        0.72058    0.12539    0.54298    1.000
    C27      C        0.76659    0.16755    0.80949    1.000
    H28      H        0.77912    0.10292    0.79649    1.000
    C29      C        0.08881    0.92243    0.94503    1.000
    C30      C        0.80631    0.83497    0.74100    1.000
    H31      H        0.79392    0.89961    0.75420    1.000
    C32      C        0.75628    0.12202    0.57438    1.000
    H33      H        0.74851    0.11985    0.60994    1.000
    C34      C        0.73131    0.13056    0.49659    1.000
    H35      H        0.70432    0.13328    0.47218    1.000
    C36      C        0.80175    0.12330    0.56056    1.000
    C37      C        0.78777    0.13090    0.43193    1.000
    C38      C        0.83737    0.83594    0.70527    1.000
    C39      C        0.01286    0.09033    0.77288    1.000
    H40      H        0.99132    0.12971    0.79508    1.000
    C41      C        0.71264    0.07717    0.85768    1.000
    C42      C        0.85430    0.92539    0.68696    1.000
    C43      C        0.77660    0.12949    0.48146    1.000
    C44      C        0.81126    0.12608    0.51390    1.000
    H45      H        0.84591    0.12621    0.50270    1.000
    C46      C        0.83919    0.12300    0.59479    1.000
    C47      C        0.67253    0.12344    0.55937    1.000
    C48      C        0.99731    0.06755    0.72921    1.000
    C49      C        0.06599    0.83439    0.96007    1.000
    C50      C        0.95071    0.09566    0.71407    1.000
    C51      C        0.05512    0.05978    0.78900    1.000
    C52      C        0.09908    0.93179    0.68385    1.000
    C53      C        0.02731    0.83329    0.98782    1.000
    H54      H        0.01314    0.89815    0.99871    1.000
    C55      C        0.06921    0.98661    0.71513    1.000
    C56      C        0.73204    0.16647    0.84183    1.000
    C57      C        0.08317    0.00895    0.75942    1.000
    H58      H        0.11584    0.98615    0.77099    1.000
    C59      C        0.02581    0.01500    0.70099    1.000
    H60      H        0.01441    0.99722    0.66753    1.000
    N61      N        0.78662    0.05238    0.17448    1.000
    C62      C        0.78022    0.97591    0.20556    1.000
    N63      N        0.96410    0.98668    0.56661    1.000
    C64      C        0.98256    0.89938    0.58211    1.000
    N65      N        0.83599    0.94118    0.86243    1.000
    C66      C        0.86331    0.98291    0.82725    1.000
    N67      N        0.57709    0.05452    0.93030    1.000
    C68      C        0.59883    0.12636    0.95669    1.000
    N69      N        0.79100    0.11144    0.95822    1.000
    C70      C        0.76237    0.12471    0.99745    1.000
    N71      N        0.03625    0.99010    0.09137    1.000
    C72      C        0.02370    0.06054    0.12393    1.000
    In73     In       0.62406    0.86937    0.19375    1.000
    In74     In       0.40305    0.87628    0.41170    1.000
    In75     In       0.80421    0.13049    0.35193    1.000
    O76      O        0.77700    0.00615    0.33346    1.000
    O77      O        0.37022    0.08066    0.43376    1.000
    O78      O        0.41590    0.12289    0.15749    1.000
    O79      O        0.43235    0.99168    0.44232    1.000
    O80      O        0.35230    0.05419    0.18323    1.000
    O81      O        0.40158    0.96553    0.35955    1.000
    O82      O        0.65080    0.99421    0.21150    1.000
    O83      O        0.56661    0.93424    0.17839    1.000
    O84      O        0.67196    0.88507    0.91569    1.000
    O85      O        0.44134    0.84751    0.35779    1.000
    O86      O        0.73916    0.85533    0.90161    1.000
    O87      O        0.75797    0.17302    0.30940    1.000
    O88      O        0.57305    0.85243    0.23640    1.000
    O89      O        0.66363    0.82718    0.24276    1.000
    O90      O        0.54645    0.17286    0.54804    1.000
    O91      O        0.85977    0.85276    0.03713    1.000
    O92      O        0.80670    0.92676    0.39230    1.000
    O93      O        0.83754    0.90192    0.09833    1.000
    O94      O        0.66888    0.88581    0.14103    1.000
    O95      O        0.62035    0.87183    0.08249    1.000
    O96      O        0.62379    0.07438    0.15153    1.000
    C97      C        0.42846    0.91773    0.33628    1.000
    C98      C        0.77787    0.87583    0.04316    1.000
    C99      C        0.73149    0.83373    0.30912    1.000
    H100     H        0.71904    0.89826    0.29597    1.000
    C101     C        0.40963    0.07703    0.44488    1.000
    C102     C        0.69187    0.16650    0.24122    1.000
    H103     H        0.70429    0.10190    0.25444    1.000
    C104     C        0.74219    0.87955    0.07455    1.000
    H105     H        0.74994    0.88107    0.11012    1.000
    C106     C        0.76716    0.87079    0.99676    1.000
    H107     H        0.79414    0.86728    0.97237    1.000
    C108     C        0.69673    0.87930    0.06068    1.000
    C109     C        0.71069    0.87085    0.93210    1.000
    C110     C        0.66075    0.16544    0.20556    1.000
    C111     C        0.48548    0.91032    0.27280    1.000
    H112     H        0.50704    0.87090    0.29497    1.000
    C113     C        0.78451    0.92471    0.35792    1.000
    C114     C        0.64386    0.07601    0.18726    1.000
    C115     C        0.72190    0.87294    0.98161    1.000
    C116     C        0.68728    0.87770    0.01402    1.000
    H117     H        0.65270    0.87958    0.00278    1.000
    C118     C        0.65925    0.87901    0.09483    1.000
    C119     C        0.82590    0.87711    0.05955    1.000
    C120     C        0.50107    0.93352    0.22920    1.000
    C121     C        0.43253    0.16509    0.45984    1.000
    C122     C        0.54766    0.90563    0.21409    1.000
    C123     C        0.44315    0.94047    0.28887    1.000
    C124     C        0.39916    0.06825    0.18369    1.000
    C125     C        0.47108    0.16620    0.48779    1.000
    H126     H        0.48507    0.10131    0.49895    1.000
    C127     C        0.42913    0.01405    0.21508    1.000
    C128     C        0.76571    0.83516    0.34175    1.000
    C129     C        0.41509    0.99133    0.25931    1.000
    H130     H        0.38235    0.01375    0.27083    1.000
    C131     C        0.47261    0.98613    0.20100    1.000
    H132     H        0.48407    0.00422    0.16756    1.000
    N133     N        0.71185    0.94876    0.67502    1.000
    C134     C        0.71832    0.02573    0.70578    1.000
    N135     N        0.54810    0.03289    0.06501    1.000
    C136     C        0.52095    0.11158    0.07859    1.000
    N137     N        0.66343    0.05242    0.36528    1.000
    C138     C        0.63592    0.01678    0.32867    1.000
    N139     N        0.94581    0.93320    0.45003    1.000
    C140     C        0.90234    0.91278    0.42996    1.000
    N141     N        0.72207    0.87882    0.46756    1.000
    C142     C        0.75680    0.88741    0.50188    1.000
    N143     N        0.46978    0.95575    0.61629    1.000
    C144     C        0.49393    0.88691    0.64243    1.000
    In145    In       0.12449    0.63105    0.30719    1.000
    In146    In       0.90327    0.62305    0.08851    1.000
    In147    In       0.30449    0.37008    0.14865    1.000
    O148     O        0.27697    0.49439    0.16657    1.000
    O149     O        0.87017    0.41873    0.06629    1.000
    O150     O        0.91591    0.37960    0.34384    1.000
    O151     O        0.93236    0.50754    0.05784    1.000
    O152     O        0.85230    0.44668    0.31715    1.000
    O153     O        0.90174    0.53363    0.14062    1.000
    O154     O        0.15157    0.50670    0.28933    1.000
    O155     O        0.06586    0.57071    0.32328    1.000
    O156     O        0.17168    0.61602    0.58482    1.000
    O157     O        0.94179    0.65119    0.14229    1.000
    O158     O        0.23892    0.64493    0.59906    1.000
    O159     O        0.25826    0.32781    0.19130    1.000
    O160     O        0.07474    0.64129    0.26241    1.000
    O161     O        0.16521    0.67409    0.25916    1.000
    O162     O        0.04684    0.32670    0.95270    1.000
    O163     O        0.35980    0.64593    0.46362    1.000
    O164     O        0.31180    0.57580    0.11128    1.000
    O165     O        0.33745    0.59808    0.40220    1.000
    O166     O        0.16770    0.60457    0.36034    1.000
    O167     O        0.12123    0.64364    0.41774    1.000
    O168     O        0.12028    0.42485    0.34659    1.000
    C169     C        0.92881    0.58111    0.16383    1.000
    C170     C        0.27782    0.62390    0.45749    1.000
    C171     C        0.23265    0.66710    0.19191    1.000
    H172     H        0.22020    0.60250    0.20500    1.000
    C173     C        0.90959    0.42228    0.05522    1.000
    C174     C        0.19112    0.33409    0.25853    1.000
    H175     H        0.20318    0.39878    0.24506    1.000
    C176     C        0.24214    0.62077    0.42608    1.000
    H177     H        0.24983    0.61868    0.39050    1.000
    C178     C        0.26708    0.62913    0.50390    1.000
    H179     H        0.29405    0.63150    0.52833    1.000
    C180     C        0.19671    0.62321    0.43991    1.000
    C181     C        0.21047    0.63014    0.56850    1.000
    C182     C        0.15975    0.33493    0.29399    1.000
    C183     C        0.98610    0.58780    0.22708    1.000
    H184     H        0.00782    0.62638    0.20472    1.000
    C185     C        0.28679    0.57678    0.14374    1.000
    C186     C        0.14243    0.42408    0.31210    1.000
    C187     C        0.22177    0.62877    0.51901    1.000
    C188     C        0.18716    0.62633    0.48654    1.000
    H189     H        0.15249    0.62729    0.49769    1.000
    C190     C        0.15928    0.62476    0.40583    1.000
    C191     C        0.32587    0.62223    0.44110    1.000
    C192     C        0.00155    0.56552    0.27085    1.000
    C193     C        0.93248    0.33420    0.04028    1.000
    C194     C        0.04812    0.59357    0.28606    1.000
    C195     C        0.94357    0.55832    0.21122    1.000
    C196     C        0.89920    0.43303    0.31703    1.000
    C197     C        0.97131    0.33308    0.01275    1.000
    H198     H        0.98555    0.39790    0.00192    1.000
    C199     C        0.92928    0.48638    0.28534    1.000
    C200     C        0.26722    0.66601    0.15956    1.000
    C201     C        0.91530    0.50855    0.24102    1.000
    H202     H        0.88244    0.48658    0.22961    1.000
    C203     C        0.97286    0.51398    0.29927    1.000
    H204     H        0.98432    0.49605    0.33269    1.000
    N205     N        0.21244    0.54929    0.82431    1.000
    C206     C        0.21846    0.47088    0.79434    1.000
    N207     N        0.07200    0.46155    0.44815    1.000
    C208     C        0.05821    0.36546    0.44582    1.000
    N209     N        0.16412    0.45981    0.13793    1.000
    C210     C        0.13367    0.48830    0.17368    1.000
    N211     N        0.46019    0.55599    0.06511    1.000
    C212     C        0.41523    0.51713    0.06116    1.000
    N213     N        0.21167    0.59701    0.04068    1.000
    C214     C        0.23596    0.62695    0.00073    1.000
    N215     N        0.95842    0.48711    0.91434    1.000
    C216     C        0.97119    0.55360    0.87995    1.000
    In217    In       0.37402    0.36886    0.80716    1.000
    In218    In       0.59499    0.37703    0.58843    1.000
    In219    In       0.19385    0.62970    0.64848    1.000
    O220     O        0.22127    0.50560    0.66701    1.000
    O221     O        0.62796    0.58147    0.56649    1.000
    O222     O        0.58218    0.62370    0.84281    1.000
    O223     O        0.56583    0.49252    0.55780    1.000
    O224     O        0.64576    0.55508    0.81695    1.000
    O225     O        0.59649    0.46669    0.64042    1.000
    O226     O        0.34656    0.49274    0.78889    1.000
    O227     O        0.43256    0.42972    0.82315    1.000
    O228     O        0.32667    0.38345    0.08504    1.000
    O229     O        0.55651    0.34901    0.64226    1.000
    O230     O        0.25943    0.35434    0.09921    1.000
    O231     O        0.24021    0.67220    0.69085    1.000
    O232     O        0.42385    0.35867    0.76242    1.000
    O233     O        0.33326    0.32552    0.75920    1.000
    O234     O        0.45164    0.67318    0.45265    1.000
    O235     O        0.13885    0.35326    0.96359    1.000
    O236     O        0.18851    0.42489    0.61026    1.000
    O237     O        0.16115    0.40158    0.90226    1.000
    O238     O        0.33126    0.39566    0.86065    1.000
    O239     O        0.37768    0.35570    0.91806    1.000
    O240     O        0.37777    0.57493    0.84604    1.000
    C241     C        0.56949    0.41923    0.66370    1.000
    C242     C        0.22084    0.37530    0.95751    1.000
    C243     C        0.26593    0.33267    0.69204    1.000
    H244     H        0.27837    0.39717    0.70525    1.000
    C245     C        0.58856    0.57789    0.55536    1.000
    C246     C        0.30709    0.66579    0.75807    1.000
    H247     H        0.29463    0.60117    0.74491    1.000
    C248     C        0.25662    0.37867    0.92617    1.000
    H249     H        0.24898    0.38095    0.89059    1.000
    C250     C        0.23150    0.36985    0.00393    1.000
    H251     H        0.20449    0.36729    0.02831    1.000
    C252     C        0.30205    0.37621    0.94010    1.000
    C253     C        0.28794    0.36912    0.06867    1.000
    C254     C        0.33858    0.66475    0.79337    1.000
    C255     C        0.51239    0.41234    0.72708    1.000
    H256     H        0.49082    0.37301    0.70488    1.000
    C257     C        0.21234    0.42351    0.64357    1.000
    C258     C        0.35571    0.57555    0.81153    1.000
    C259     C        0.27677    0.37046    0.01914    1.000
    C260     C        0.31146    0.37308    0.98675    1.000
    H261     H        0.34611    0.37221    0.99798    1.000
    C262     C        0.33963    0.37479    0.90611    1.000
    C263     C        0.17278    0.37710    0.94111    1.000
    C264     C        0.49685    0.43526    0.77071    1.000
    C265     C        0.56562    0.66596    0.54054    1.000
    C266     C        0.45036    0.40683    0.78597    1.000
    C267     C        0.55478    0.44225    0.71107    1.000
    C268     C        0.59890    0.56939    0.81643    1.000
    C269     C        0.52698    0.66706    0.51277    1.000
    H270     H        0.51293    0.60221    0.50173    1.000
    C271     C        0.56888    0.51552    0.78491    1.000
    C272     C        0.23149    0.33408    0.65959    1.000
    C273     C        0.58293    0.49279    0.74068    1.000
    H274     H        0.61573    0.51497    0.72921    1.000
    C275     C        0.52532    0.48788    0.79889    1.000
    H276     H        0.51371    0.50660    0.83214    1.000
    N277     N        0.28582    0.44860    0.32508    1.000
    C278     C        0.28006    0.52593    0.29439    1.000
    N279     N        0.42761    0.54631    0.93785    1.000
    C280     C        0.44067    0.64249    0.94265    1.000
    N281     N        0.33422    0.54355    0.63557    1.000
    C282     C        0.36326    0.51283    0.67205    1.000
    N283     N        0.04813    0.47864    0.56697    1.000
    C284     C        0.08650    0.41818    0.57383    1.000
    N285     N        0.27332    0.37866    0.53371    1.000
    C286     C        0.23767    0.38625    0.50028    1.000
    N287     N        0.53821    0.51063    0.41245    1.000
    C288     C        0.52584    0.44306    0.37841    1.000
    In289    In       0.12423    0.86994    0.30638    1.000
    In290    In       0.90330    0.87472    0.08875    1.000
    In291    In       0.30436    0.13118    0.14844    1.000
    O292     O        0.27644    0.00728    0.16643    1.000
    O293     O        0.87027    0.07894    0.06641    1.000
    O294     O        0.91583    0.12175    0.34298    1.000
    O295     O        0.93256    0.99023    0.05819    1.000
    O296     O        0.85218    0.05294    0.31745    1.000
    O297     O        0.90175    0.96439    0.14075    1.000
    O298     O        0.15062    0.99466    0.28828    1.000
    O299     O        0.06668    0.93425    0.32189    1.000
    O300     O        0.17162    0.88160    0.58465    1.000
    O301     O        0.94157    0.84650    0.14271    1.000
    O302     O        0.23892    0.85348    0.59869    1.000
    O303     O        0.25789    0.17361    0.19083    1.000
    O304     O        0.07300    0.85155    0.26416    1.000
    O305     O        0.16370    0.82840    0.25725    1.000
    O306     O        0.04681    0.17074    0.95274    1.000
    O307     O        0.35943    0.85232    0.46302    1.000
    O308     O        0.31232    0.92567    0.11196    1.000
    O309     O        0.33736    0.90482    0.40242    1.000
    O310     O        0.16903    0.88685    0.35908    1.000
    O311     O        0.12012    0.87754    0.41749    1.000
    O312     O        0.12395    0.07439    0.34855    1.000
    C313     C        0.92860    0.91675    0.16413    1.000
    C314     C        0.27759    0.87617    0.45721    1.000
    C315     C        0.23259    0.83433    0.19186    1.000
    H316     H        0.22020    0.89893    0.20497    1.000
    C317     C        0.90971    0.07543    0.05542    1.000
    C318     C        0.19191    0.16695    0.25905    1.000
    H319     H        0.20483    0.10246    0.24621    1.000
    C320     C        0.24196    0.88084    0.42582    1.000
    H321     H        0.24978    0.88415    0.39029    1.000
    C322     C        0.26682    0.86941    0.50354    1.000
    H323     H        0.29379    0.86560    0.52793    1.000
    C324     C        0.19648    0.87942    0.43957    1.000
    C325     C        0.21036    0.86807    0.56819    1.000
    C326     C        0.16046    0.16569    0.29439    1.000
    C327     C        0.98548    0.90945    0.22769    1.000
    H328     H        0.00712    0.87024    0.20550    1.000
    C329     C        0.28677    0.92476    0.14395    1.000
    C330     C        0.14378    0.07624    0.31269    1.000
    C331     C        0.22153    0.87042    0.51865    1.000
    C332     C        0.18691    0.87507    0.48619    1.000
    H333     H        0.15225    0.87450    0.49733    1.000
    C334     C        0.15915    0.88128    0.40527    1.000
    C335     C        0.32564    0.87813    0.44088    1.000
    C336     C        0.00098    0.93249    0.27132    1.000
    C337     C        0.93256    0.16351    0.04042    1.000
    C338     C        0.04762    0.90494    0.28640    1.000
    C339     C        0.94316    0.93956    0.21157    1.000
    C340     C        0.89904    0.06711    0.31682    1.000
    C341     C        0.97141    0.16457    0.01291    1.000
    H342     H        0.98570    0.09969    0.00223    1.000
    C343     C        0.92898    0.01283    0.28542    1.000
    C344     C        0.26719    0.83548    0.15960    1.000
    C345     C        0.91502    0.99027    0.24113    1.000
    H346     H        0.88230    0.01270    0.22955    1.000
    C347     C        0.97244    0.98486    0.29954    1.000
    H348     H        0.98386    0.00286    0.33301    1.000
    N349     N        0.21287    0.95016    0.82286    1.000
    C350     C        0.21890    0.02943    0.79343    1.000
    N351     N        0.04940    0.05143    0.43367    1.000
    C352     C        0.02288    0.13076    0.41972    1.000
    N353     N        0.16221    0.06872    0.13575    1.000
    C354     C        0.13790    0.01735    0.17010    1.000
    N355     N        0.44498    0.91507    0.03603    1.000
    C356     C        0.40557    0.93500    0.06337    1.000
    N357     N        0.19224    0.88467    0.04281    1.000
    C358     C        0.23841    0.87656    0.02696    1.000
    N359     N        0.96093    0.01070    0.91187    1.000
    C360     C        0.97298    0.94359    0.87749    1.000
    In361    In       0.37432    0.12973    0.80636    1.000
    In362    In       0.59513    0.12553    0.58873    1.000
    In363    In       0.19393    0.86879    0.64824    1.000
    O364     O        0.22157    0.99303    0.66613    1.000
    O365     O        0.62781    0.92114    0.56669    1.000
    O366     O        0.58296    0.87573    0.84132    1.000
    O367     O        0.56553    0.00993    0.55857    1.000
    O368     O        0.64625    0.94881    0.81785    1.000
    O369     O        0.59700    0.03646    0.64086    1.000
    O370     O        0.34786    0.00523    0.78803    1.000
    O371     O        0.43191    0.06550    0.82179    1.000
    O372     O        0.32681    0.11633    0.08491    1.000
    O373     O        0.55690    0.15407    0.64262    1.000
    O374     O        0.25972    0.14742    0.09870    1.000
    O375     O        0.24040    0.82641    0.69056    1.000
    O376     O        0.42554    0.14850    0.76417    1.000
    O377     O        0.33481    0.17120    0.75724    1.000
    O378     O        0.45159    0.82908    0.45254    1.000
    O379     O        0.13902    0.14662    0.96325    1.000
    O380     O        0.18629    0.07486    0.61127    1.000
    O381     O        0.16103    0.09466    0.90254    1.000
    O382     O        0.32962    0.11228    0.85915    1.000
    O383     O        0.37841    0.12412    0.91755    1.000
    O384     O        0.37510    0.92475    0.84779    1.000
    C385     C        0.57004    0.08406    0.66413    1.000
    C386     C        0.22090    0.12265    0.95737    1.000
    C387     C        0.26615    0.16537    0.69142    1.000
    H388     H        0.27885    0.10056    0.70410    1.000
    C389     C        0.58834    0.92469    0.55575    1.000
    C390     C        0.30717    0.83300    0.75802    1.000
    H391     H        0.29487    0.89766    0.74470    1.000
    C392     C        0.25654    0.11836    0.92593    1.000
    H393     H        0.24870    0.11528    0.89041    1.000
    C394     C        0.23172    0.12914    0.00370    1.000
    H395     H        0.20478    0.13252    0.02814    1.000
    C396     C        0.30204    0.12005    0.93965    1.000
    C397     C        0.28821    0.13123    0.06832    1.000
    C398     C        0.33842    0.83402    0.79354    1.000
    C399     C        0.51308    0.09098    0.72759    1.000
    H400     H        0.49144    0.13028    0.70546    1.000
    C401     C        0.21163    0.07555    0.64348    1.000
    C402     C        0.35508    0.92331    0.81202    1.000
    C403     C        0.27704    0.12869    0.01877    1.000
    C404     C        0.31164    0.12424    0.98629    1.000
    H405     H        0.34631    0.12480    0.99742    1.000
    C406     C        0.33941    0.11884    0.90534    1.000
    C407     C        0.17281    0.12092    0.94105    1.000
    C408     C        0.49758    0.06762    0.77118    1.000
    C409     C        0.56546    0.83667    0.54076    1.000
    C410     C        0.45094    0.09502    0.78632    1.000
    C411     C        0.55546    0.06120    0.71150    1.000
    C412     C        0.59958    0.93272    0.81629    1.000
    C413     C        0.52673    0.83559    0.51309    1.000
    H414     H        0.51235    0.90050    0.50249    1.000
    C415     C        0.56962    0.98738    0.78513    1.000
    C416     C        0.23140    0.16462    0.65926    1.000
    C417     C        0.58360    0.01037    0.74094    1.000
    H418     H        0.61635    0.98809    0.72935    1.000
    C419     C        0.52616    0.01510    0.79929    1.000
    H420     H        0.51480    0.99686    0.83271    1.000
    N421     N        0.28616    0.04945    0.32378    1.000
    C422     C        0.27981    0.97066    0.29411    1.000
    N423     N        0.46175    0.96974    0.91365    1.000
    C424     C        0.48099    0.87793    0.91001    1.000
    N425     N        0.34009    0.92925    0.64104    1.000
    C426     C        0.36828    0.98516    0.67035    1.000
    N427     N        0.07431    0.11839    0.55769    1.000
    C428     C        0.09492    0.02836    0.55176    1.000
    N429     N        0.29242    0.08383    0.54949    1.000
    C430     C        0.26466    0.12571    0.51470    1.000
    N431     N        0.53541    0.98994    0.40881    1.000
    C432     C        0.52377    0.05914    0.37529    1.000
    In433    In       0.87396    0.37040    0.69383    1.000
    In434    In       0.09529    0.37480    0.91193    1.000
    In435    In       0.69390    0.63165    0.85175    1.000
    O436     O        0.72097    0.50706    0.83353    1.000
    O437     O        0.12830    0.57916    0.93398    1.000
    O438     O        0.08226    0.62534    0.65922    1.000
    O439     O        0.06609    0.49032    0.94251    1.000
    O440     O        0.14561    0.55237    0.68273    1.000
    O441     O        0.09671    0.46440    0.85993    1.000
    O442     O        0.84730    0.49533    0.71164    1.000
    O443     O        0.93137    0.43579    0.67888    1.000
    O444     O        0.82651    0.38389    0.41553    1.000
    O445     O        0.05661    0.34692    0.85819    1.000
    O446     O        0.75929    0.35417    0.40146    1.000
    O447     O        0.74015    0.67436    0.80919    1.000
    O448     O        0.92494    0.35273    0.73646    1.000
    O449     O        0.83425    0.32847    0.74276    1.000
    O450     O        0.95191    0.67089    0.04791    1.000
    O451     O        0.63850    0.35440    0.53686    1.000
    O452     O        0.68799    0.42657    0.89030    1.000
    O453     O        0.66077    0.40423    0.59793    1.000
    O454     O        0.82918    0.38668    0.64106    1.000
    O455     O        0.87785    0.37249    0.58271    1.000
    O456     O        0.87334    0.57496    0.65110    1.000
    C457     C        0.06961    0.41705    0.83670    1.000
    C458     C        0.72045    0.37675    0.54292    1.000
    C459     C        0.76629    0.33476    0.80919    1.000
    H460     H        0.77852    0.39935    0.79592    1.000
    C461     C        0.08888    0.57562    0.94510    1.000
    C462     C        0.80634    0.66781    0.74123    1.000
    H463     H        0.79403    0.60326    0.75463    1.000
    C464     C        0.75608    0.38064    0.57436    1.000
    H465     H        0.74827    0.38340    0.60990    1.000
    C466     C        0.73125    0.37056    0.49658    1.000
    H467     H        0.70429    0.36720    0.47215    1.000
    C468     C        0.80157    0.37897    0.56062    1.000
    C469     C        0.78779    0.36952    0.43195    1.000
    C470     C        0.83728    0.66653    0.70544    1.000
    C471     C        0.01254    0.41020    0.77319    1.000
    H472     H        0.99095    0.37062    0.79526    1.000
    C473     C        0.71215    0.42517    0.85721    1.000
    C474     C        0.85389    0.57695    0.68714    1.000
    C475     C        0.77657    0.37160    0.48149    1.000
    C476     C        0.81116    0.37560    0.51398    1.000
    H477     H        0.84583    0.37524    0.50284    1.000
    C478     C        0.83891    0.37931    0.59491    1.000
    C479     C        0.67239    0.37884    0.55924    1.000
    C480     C        0.99693    0.43398    0.72967    1.000
    C481     C        0.06602    0.66366    0.96009    1.000
    C482     C        0.95032    0.40643    0.71443    1.000
    C483     C        0.05491    0.44007    0.78931    1.000
    C484     C        0.09893    0.56859    0.68437    1.000
    C485     C        0.02732    0.66474    0.98780    1.000
    H486     H        0.01315    0.59984    0.99865    1.000
    C487     C        0.06898    0.51415    0.71567    1.000
    C488     C        0.73177    0.33588    0.84157    1.000
    C489     C        0.08306    0.49087    0.75981    1.000
    H490     H        0.11586    0.51295    0.77135    1.000
    C491     C        0.02540    0.48691    0.70164    1.000
    H492     H        0.01384    0.50597    0.66839    1.000
    N493     N        0.78593    0.45062    0.17594    1.000
    C494     C        0.77993    0.52833    0.20635    1.000
    N495     N        0.93604    0.55347    0.56499    1.000
    C496     C        0.95009    0.64954    0.56427    1.000
    N497     N        0.83486    0.55657    0.86280    1.000
    C498     C        0.86250    0.51293    0.82843    1.000
    N499     N        0.53955    0.47078    0.93964    1.000
    C500     C        0.58428    0.43368    0.93142    1.000
    N501     N        0.83351    0.37550    0.95162    1.000
    C502     C        0.78617    0.39218    0.96120    1.000
    N503     N        0.03382    0.50204    0.09380    1.000
    C504     C        0.02109    0.42905    0.12494    1.000
    In505    In       0.62422    0.63077    0.19352    1.000
    In506    In       0.40327    0.62478    0.41187    1.000
    In507    In       0.80426    0.36984    0.35196    1.000
    O508     O        0.77679    0.49432    0.33407    1.000
    O509     O        0.37035    0.42031    0.43350    1.000
    O510     O        0.41616    0.37482    0.15902    1.000
    O511     O        0.43247    0.50920    0.44236    1.000
    O512     O        0.35278    0.44696    0.18308    1.000
    O513     O        0.40181    0.53518    0.35991    1.000
    O514     O        0.65119    0.50615    0.21132    1.000
    O515     O        0.56679    0.56545    0.17853    1.000
    O516     O        0.67171    0.61765    0.91534    1.000
    O517     O        0.44203    0.65257    0.35822    1.000
    O518     O        0.73903    0.64615    0.90116    1.000
    O519     O        0.75803    0.32726    0.30933    1.000
    O520     O        0.57334    0.64786    0.23633    1.000
    O521     O        0.66410    0.67265    0.24235    1.000
    O522     O        0.54646    0.32881    0.54779    1.000
    O523     O        0.85984    0.64594    0.03690    1.000
    O524     O        0.81038    0.57540    0.39027    1.000
    O525     O        0.83744    0.59580    0.09786    1.000
    O526     O        0.66864    0.61391    0.14050    1.000
    O527     O        0.62062    0.63746    0.08227    1.000
    O528     O        0.62429    0.42582    0.15140    1.000
    C529     C        0.42896    0.58248    0.33672    1.000
    C530     C        0.77785    0.62361    0.04272    1.000
    C531     C        0.73179    0.66650    0.30918    1.000
    H532     H        0.71951    0.60180    0.29604    1.000
    C533     C        0.40971    0.42387    0.44477    1.000
    C534     C        0.69196    0.33365    0.24121    1.000
    H535     H        0.70443    0.39822    0.25442    1.000
    C536     C        0.74215    0.62105    0.07412    1.000
    H537     H        0.74989    0.61906    0.10969    1.000
    C538     C        0.76714    0.62916    0.99632    1.000
    H539     H        0.79413    0.63165    0.97191    1.000
    C540     C        0.69669    0.62349    0.06030    1.000
    C541     C        0.71053    0.63121    0.93170    1.000
    C542     C        0.66089    0.33479    0.20555    1.000
    C543     C        0.48591    0.58967    0.27318    1.000
    H544     H        0.50747    0.62939    0.29523    1.000
    C545     C        0.78591    0.57649    0.35742    1.000
    C546     C        0.64420    0.42424    0.18719    1.000
    C547     C        0.72182    0.62897    0.98120    1.000
    C548     C        0.68720    0.62598    0.01366    1.000
    H549     H        0.65257    0.62611    0.00248    1.000
    C550     C        0.65926    0.62517    0.09446    1.000
    C551     C        0.82589    0.62137    0.05916    1.000
    C552     C        0.50145    0.56612    0.22962    1.000
    C553     C        0.43254    0.33580    0.45976    1.000
    C554     C        0.54795    0.59423    0.21426    1.000
    C555     C        0.44362    0.55949    0.28936    1.000
    C556     C        0.39950    0.43104    0.18447    1.000
    C557     C        0.47113    0.33477    0.48761    1.000
    H558     H        0.48523    0.39967    0.49853    1.000
    C559     C        0.42950    0.48540    0.21576    1.000
    C560     C        0.76621    0.66568    0.34169    1.000
    C561     C        0.41550    0.50852    0.25993    1.000
    H562     H        0.38275    0.48627    0.27153    1.000
    C563     C        0.47302    0.51296    0.20166    1.000
    H564     H        0.48457    0.49397    0.16843    1.000
    N565     N        0.71204    0.55175    0.67602    1.000
    C566     C        0.71818    0.47372    0.70622    1.000
    N567     N        0.57270    0.45335    0.06006    1.000
    C568     C        0.55404    0.36078    0.05775    1.000
    N569     N        0.66096    0.43398    0.36025    1.000
    C570     C        0.63438    0.48096    0.32610    1.000
    N571     N        0.95860    0.53277    0.44324    1.000
    C572     C        0.91359    0.56776    0.43435    1.000
    N573     N        0.70346    0.58514    0.45441    1.000
    C574     C        0.72974    0.62707    0.49032    1.000
    N575     N        0.46342    0.49372    0.59159    1.000
    C576     C        0.47502    0.56414    0.62452    1.000
    O577     O        0.10901    0.24901    0.88779    1.000
    O578     O        0.88282    0.25138    0.66061    1.000
    C579     C        0.82030    0.25118    0.75785    1.000
    C580     C        0.78462    0.25116    0.79334    1.000
    C581     C        0.71543    0.25118    0.85815    1.000
    H582     H        0.68867    0.25117    0.88286    1.000
    N583     N        0.89541    0.24991    0.22551    1.000
    C584     C        0.84645    0.25089    0.22526    1.000
    O585     O        0.38947    0.75041    0.38762    1.000
    O586     O        0.61533    0.75023    0.16058    1.000
    C587     C        0.67797    0.74990    0.25756    1.000
    C588     C        0.71357    0.75000    0.29308    1.000
    C589     C        0.78233    0.75059    0.35828    1.000
    H590     H        0.80890    0.75092    0.38319    1.000
    N591     N        0.60047    0.75250    0.72350    1.000
    C592     C        0.64942    0.75190    0.72504    1.000
    O593     O        0.88967    0.74880    0.11276    1.000
    O594     O        0.11653    0.75109    0.33974    1.000
    C595     C        0.17867    0.75106    0.24327    1.000
    C596     C        0.21445    0.75074    0.20788    1.000
    C597     C        0.28372    0.75078    0.14319    1.000
    H598     H        0.31051    0.75082    0.11851    1.000
    N599     N        0.10274    0.74923    0.77632    1.000
    C600     C        0.15169    0.74923    0.77506    1.000
    O601     O        0.60869    0.25144    0.61274    1.000
    O602     O        0.38184    0.24869    0.83965    1.000
    C603     C        0.31986    0.24852    0.74327    1.000
    C604     C        0.28413    0.24888    0.70781    1.000
    C605     C        0.21490    0.24952    0.64307    1.000
    H606     H        0.18811    0.24981    0.61839    1.000
    N607     N        0.39559    0.24939    0.27696    1.000
    C608     C        0.34665    0.25002    0.27534    1.000
    O609     O        0.66163    0.75155    0.83821    1.000
    C610     C        0.85228    0.75114    0.68746    1.000
    C611     C        0.00776    0.74900    0.00276    1.000
    C612     C        0.79015    0.75146    0.75902    1.000
    C613     C        0.75507    0.75149    0.79499    1.000
    C614     C        0.96797    0.74892    0.03483    1.000
    C615     C        0.08474    0.74904    0.94705    1.000
    H616     H        0.11431    0.74905    0.92578    1.000
    N617     N        0.53628    0.73092    0.02304    1.000
    C618     C        0.56401    0.76868    0.98713    1.000
    O619     O        0.83664    0.25013    0.33809    1.000
    C620     C        0.64579    0.25015    0.18773    1.000
    C621     C        0.49064    0.25056    0.50264    1.000
    C622     C        0.70809    0.25007    0.25912    1.000
    C623     C        0.74316    0.25012    0.29508    1.000
    C624     C        0.53039    0.25075    0.53474    1.000
    C625     C        0.41390    0.25044    0.44662    1.000
    H626     H        0.38444    0.25041    0.42518    1.000
    N627     N        0.97864    0.26606    0.59611    1.000
    C628     C        0.97317    0.26323    0.54740    1.000
    O629     O        0.33679    0.25052    0.16252    1.000
    C630     C        0.14492    0.25019    0.31187    1.000
    C631     C        0.99095    0.24880    0.99793    1.000
    C632     C        0.20786    0.25059    0.24103    1.000
    C633     C        0.24316    0.25070    0.20528    1.000
    C634     C        0.03078    0.24874    0.96591    1.000
    C635     C        0.91370    0.24886    0.05326    1.000
    H636     H        0.88400    0.24889    0.07435    1.000
    N637     N        0.47756    0.25513    0.91823    1.000
    C638     C        0.46921    0.23137    0.96507    1.000
    O639     O        0.16161    0.74935    0.66253    1.000
    C640     C        0.35366    0.74941    0.81114    1.000
    C641     C        0.50733    0.75131    0.49797    1.000
    C642     C        0.29073    0.74939    0.74037    1.000
    C643     C        0.25528    0.74934    0.70483    1.000
    C644     C        0.46763    0.75120    0.46582    1.000
    C645     C        0.58425    0.75131    0.55372    1.000
    H646     H        0.61381    0.75129    0.57502    1.000
    N647     N        0.02372    0.74388    0.42844    1.000
    C648     C        0.04034    0.76491    0.47342    1.000
    H649     H        0.77274    0.03564    0.14325    1.000
    H650     H        0.82098    0.06531    0.17072    1.000
    H651     H        0.79814    0.91393    0.19299    1.000
    H652     H        0.74386    0.95973    0.20874    1.000
    H653     H        0.79364    0.99431    0.23925    1.000
    H654     H        0.98311    0.01092    0.53953    1.000
    H655     H        0.96521    0.03461    0.59278    1.000
    H656     H        0.98106    0.84762    0.55468    1.000
    H657     H        0.96297    0.87368    0.61135    1.000
    H658     H        0.01814    0.90858    0.59239    1.000
    H659     H        0.82184    0.88014    0.85038    1.000
    H660     H        0.81043    0.98676    0.87164    1.000
    H661     H        0.84184    0.00176    0.79828    1.000
    H662     H        0.88936    0.93352    0.81566    1.000
    H663     H        0.87983    0.04624    0.84007    1.000
    H664     H        0.55141    0.08345    0.91092    1.000
    H665     H        0.56364    0.00502    0.95194    1.000
    H666     H        0.61319    0.17954    0.93400    1.000
    H667     H        0.62629    0.09621    0.97731    1.000
    H668     H        0.57396    0.15949    0.97938    1.000
    H669     H        0.78725    0.04416    0.94639    1.000
    H670     H        0.82453    0.12277    0.96717    1.000
    H671     H        0.77280    0.07730    0.02484    1.000
    H672     H        0.72677    0.11041    0.98855    1.000
    H673     H        0.76525    0.19673    0.00969    1.000
    H674     H        0.01692    0.93107    0.09675    1.000
    H675     H        0.07025    0.97388    0.09511    1.000
    H676     H        0.98777    0.07926    0.11975    1.000
    H677     H        0.04461    0.12309    0.11894    1.000
    H678     H        0.02881    0.03433    0.15864    1.000
    H679     H        0.72615    0.96457    0.64385    1.000
    H680     H        0.67748    0.93643    0.67095    1.000
    H681     H        0.75471    0.04141    0.70915    1.000
    H682     H        0.70459    0.00820    0.73946    1.000
    H683     H        0.70072    0.08775    0.69279    1.000
    H684     H        0.54468    0.98043    0.08881    1.000
    H685     H        0.58180    0.05271    0.06280    1.000
    H686     H        0.48522    0.09070    0.08214    1.000
    H687     H        0.52331    0.16675    0.05287    1.000
    H688     H        0.53308    0.13876    0.11136    1.000
    H689     H        0.68749    0.00330    0.37425    1.000
    H690     H        0.64302    0.06694    0.39299    1.000
    H691     H        0.65742    0.00002    0.29940    1.000
    H692     H        0.61081    0.06918    0.31824    1.000
    H693     H        0.61824    0.95318    0.33948    1.000
    H694     H        0.95180    0.88734    0.47642    1.000
    H695     H        0.94564    0.00061    0.46231    1.000
    H696     H        0.87538    0.92057    0.45555    1.000
    H697     H        0.90197    0.84107    0.41695    1.000
    H698     H        0.89578    0.96094    0.40171    1.000
    H699     H        0.73311    0.83411    0.44232    1.000
    H700     H        0.71547    0.94351    0.45365    1.000
    H701     H        0.78744    0.91922    0.48722    1.000
    H702     H        0.76560    0.81853    0.51544    1.000
    H703     H        0.74452    0.93113    0.52994    1.000
    H704     H        0.47801    0.94623    0.58245    1.000
    H705     H        0.48198    0.02053    0.62551    1.000
    H706     H        0.48290    0.81695    0.63220    1.000
    H707     H        0.48662    0.89654    0.67874    1.000
    H708     H        0.53071    0.89338    0.63687    1.000
    H709     H        0.17812    0.56137    0.82902    1.000
    H710     H        0.22738    0.60753    0.81009    1.000
    H711     H        0.20344    0.48609    0.76095    1.000
    H712     H        0.20184    0.40903    0.80872    1.000
    H713     H        0.25483    0.45622    0.78992    1.000
    H714     H        0.10630    0.46506    0.45558    1.000
    H715     H        0.05373    0.49512    0.47328    1.000
    H716     H        0.06410    0.33120    0.47869    1.000
    H717     H        0.07784    0.32903    0.41950    1.000
    H718     H        0.02190    0.36087    0.43740    1.000
    H719     H        0.14554    0.43861    0.10996    1.000
    H720     H        0.18392    0.40520    0.14932    1.000
    H721     H        0.11227    0.42943    0.18419    1.000
    H722     H        0.11196    0.54569    0.16197    1.000
    H723     H        0.15323    0.51234    0.20308    1.000
    H724     H        0.47889    0.51692    0.08789    1.000
    H725     H        0.45799    0.62386    0.07658    1.000
    H726     H        0.41723    0.44515    0.04867    1.000
    H727     H        0.39481    0.55856    0.03732    1.000
    H728     H        0.39847    0.51740    0.09450    1.000
    H729     H        0.20742    0.65286    0.06245    1.000
    H730     H        0.23003    0.54554    0.05695    1.000
    H731     H        0.21711    0.68293    0.98362    1.000
    H732     H        0.23999    0.56858    0.97698    1.000
    H733     H        0.26982    0.65267    0.01028    1.000
    H734     H        0.92504    0.46714    0.90953    1.000
    H735     H        0.96174    0.51719    0.94608    1.000
    H736     H        0.96809    0.52204    0.84607    1.000
    H737     H        0.00655    0.57574    0.88499    1.000
    H738     H        0.94899    0.61498    0.88183    1.000
    H739     H        0.27070    0.39003    0.31139    1.000
    H740     H        0.27080    0.46403    0.35594    1.000
    H741     H        0.29465    0.50886    0.26102    1.000
    H742     H        0.29727    0.58785    0.30799    1.000
    H743     H        0.24375    0.54151    0.29016    1.000
    H744     H        0.43855    0.52165    0.90671    1.000
    H745     H        0.39264    0.54101    0.93997    1.000
    H746     H        0.42486    0.68434    0.91567    1.000
    H747     H        0.47775    0.64921    0.94010    1.000
    H748     H        0.42955    0.66924    0.97583    1.000
    H749     H        0.35380    0.56061    0.60760    1.000
    H750     H        0.31617    0.60142    0.64603    1.000
    H751     H        0.38302    0.45176    0.66136    1.000
    H752     H        0.34267    0.49359    0.70161    1.000
    H753     H        0.38659    0.56900    0.68193    1.000
    H754     H        0.05738    0.54462    0.57752    1.000
    H755     H        0.02246    0.45656    0.58837    1.000
    H756     H        0.11523    0.44245    0.55315    1.000
    H757     H        0.07770    0.34714    0.56330    1.000
    H758     H        0.09630    0.41759    0.60990    1.000
    H759     H        0.26312    0.33408    0.55934    1.000
    H760     H        0.28000    0.44362    0.54726    1.000
    H761     H        0.22882    0.31703    0.48715    1.000
    H762     H        0.24904    0.42984    0.47178    1.000
    H763     H        0.20729    0.41771    0.51563    1.000
    H764     H        0.53269    0.48293    0.44438    1.000
    H765     H        0.51876    0.56992    0.40830    1.000
    H766     H        0.54698    0.38043    0.38201    1.000
    H767     H        0.53082    0.47247    0.34431    1.000
    H768     H        0.48998    0.42346    0.38224    1.000
    H769     H        0.17857    0.93885    0.82808    1.000
    H770     H        0.22857    0.96271    0.85370    1.000
    H771     H        0.20254    0.09100    0.80840    1.000
    H772     H        0.20358    0.01544    0.76005    1.000
    H773     H        0.25528    0.04382    0.78885    1.000
    H774     H        0.03389    0.01972    0.46111    1.000
    H775     H        0.08162    0.07302    0.44290    1.000
    H776     H        0.98927    0.10801    0.40786    1.000
    H777     H        0.04017    0.16757    0.39190    1.000
    H778     H        0.01839    0.17855    0.44853    1.000
    H779     H        0.19038    0.03107    0.12565    1.000
    H780     H        0.17247    0.13202    0.14894    1.000
    H781     H        0.16017    0.00387    0.19919    1.000
    H782     H        0.12628    0.95038    0.15632    1.000
    H783     H        0.10847    0.05763    0.18190    1.000
    H784     H        0.43750    0.86140    0.01387    1.000
    H785     H        0.47161    0.89568    0.05691    1.000
    H786     H        0.39606    0.87303    0.08310    1.000
    H787     H        0.37697    0.95511    0.04143    1.000
    H788     H        0.41293    0.99232    0.08694    1.000
    H789     H        0.17782    0.94449    0.02962    1.000
    H790     H        0.19207    0.88787    0.07793    1.000
    H791     H        0.23893    0.87002    0.98973    1.000
    H792     H        0.25457    0.81500    0.04211    1.000
    H793     H        0.25790    0.93847    0.03679    1.000
    H794     H        0.92700    0.02797    0.90876    1.000
    H795     H        0.98053    0.06983    0.90786    1.000
    H796     H        0.96795    0.97367    0.84353    1.000
    H797     H        0.95167    0.88116    0.88092    1.000
    H798     H        0.00880    0.92347    0.88110    1.000
    H799     H        0.27087    0.03635    0.35477    1.000
    H800     H        0.27163    0.10777    0.30925    1.000
    H801     H        0.29635    0.90886    0.30864    1.000
    H802     H        0.29473    0.98521    0.26061    1.000
    H803     H        0.24338    0.95628    0.28990    1.000
    H804     H        0.47833    0.00391    0.93973    1.000
    H805     H        0.42826    0.96247    0.92364    1.000
    H806     H        0.51756    0.88309    0.90323    1.000
    H807     H        0.46474    0.84033    0.88187    1.000
    H808     H        0.47583    0.83913    0.94176    1.000
    H809     H        0.35810    0.91155    0.61212    1.000
    H810     H        0.31152    0.96682    0.63206    1.000
    H811     H        0.38088    0.04633    0.65179    1.000
    H812     H        0.39733    0.94408    0.68252    1.000
    H813     H        0.34854    0.00889    0.69976    1.000
    H814     H        0.09726    0.16010    0.57480    1.000
    H815     H        0.04670    0.10993    0.57904    1.000
    H816     H        0.12648    0.03537    0.53211    1.000
    H817     H        0.07165    0.98236    0.53321    1.000
    H818     H        0.10253    0.99735    0.58504    1.000
    H819     H        0.32029    0.05220    0.53465    1.000
    H820     H        0.27350    0.03467    0.56677    1.000
    H821     H        0.25238    0.07214    0.49105    1.000
    H822     H        0.28465    0.17709    0.49557    1.000
    H823     H        0.23526    0.16050    0.53027    1.000
    H824     H        0.52842    0.01553    0.44089    1.000
    H825     H        0.56960    0.97443    0.40656    1.000
    H826     H        0.48762    0.07734    0.37803    1.000
    H827     H        0.53029    0.03197    0.34099    1.000
    H828     H        0.54425    0.12218    0.38057    1.000
    H829     H        0.77088    0.39212    0.18977    1.000
    H830     H        0.82024    0.43845    0.17126    1.000
    H831     H        0.79445    0.51187    0.23983    1.000
    H832     H        0.74358    0.54367    0.21043    1.000
    H833     H        0.79706    0.59020    0.19259    1.000
    H834     H        0.95387    0.51652    0.54070    1.000
    H835     H        0.90164    0.54948    0.55811    1.000
    H836     H        0.94291    0.68021    0.53080    1.000
    H837     H        0.98670    0.65461    0.57117    1.000
    H838     H        0.93156    0.68899    0.59037    1.000
    H839     H        0.82161    0.61796    0.85015    1.000
    H840     H        0.85450    0.57063    0.89113    1.000
    H841     H        0.84168    0.49613    0.79870    1.000
    H842     H        0.87740    0.44825    0.84165    1.000
    H843     H        0.88981    0.56028    0.81780    1.000
    H844     H        0.52057    0.46666    0.91017    1.000
    H845     H        0.54224    0.53952    0.94969    1.000
    H846     H        0.58190    0.36019    0.92134    1.000
    H847     H        0.60507    0.43904    0.96234    1.000
    H848     H        0.60087    0.47300    0.90406    1.000
    H849     H        0.84422    0.31697    0.96905    1.000
    H850     H        0.85244    0.43240    0.96187    1.000
    H851     H        0.76564    0.33273    0.94980    1.000
    H852     H        0.77459    0.45489    0.94328    1.000
    H853     H        0.78122    0.40205    0.99793    1.000
    H854     H        0.06868    0.51029    0.09411    1.000
    H855     H        0.01845    0.56363    0.10345    1.000
    H856     H        0.03105    0.44796    0.15973    1.000
    H857     H        0.03800    0.36369    0.11540    1.000
    H858     H        0.98414    0.41845    0.12410    1.000
    H859     H        0.72777    0.53804    0.64532    1.000
    H860     H        0.72624    0.61058    0.69042    1.000
    H861     H        0.75458    0.45970    0.71092    1.000
    H862     H        0.70188    0.41147    0.69187    1.000
    H863     H        0.70289    0.48900    0.73947    1.000
    H864     H        0.60771    0.44990    0.05750    1.000
    H865     H        0.56370    0.48363    0.09063    1.000
    H866     H        0.56691    0.31865    0.08615    1.000
    H867     H        0.56388    0.32751    0.02558    1.000
    H868     H        0.51677    0.36379    0.05973    1.000
    H869     H        0.64074    0.41926    0.38808    1.000
    H870     H        0.68755    0.47642    0.37007    1.000
    H871     H        0.60773    0.43440    0.31318    1.000
    H872     H        0.65624    0.50172    0.29775    1.000
    H873     H        0.61866    0.54376    0.34047    1.000
    H874     H        0.95631    0.46702    0.45734    1.000
    H875     H        0.97508    0.57685    0.46557    1.000
    H876     H        0.89606    0.52169    0.41028    1.000
    H877     H        0.91559    0.63800    0.41968    1.000
    H878     H        0.89396    0.57072    0.46611    1.000
    H879     H        0.72347    0.53765    0.43726    1.000
    H880     H        0.69270    0.63618    0.43209    1.000
    H881     H        0.75951    0.66262    0.47593    1.000
    H882     H        0.74143    0.57339    0.51421    1.000
    H883     H        0.70884    0.67779    0.50888    1.000
    H884     H        0.47081    0.51774    0.55933    1.000
    H885     H        0.42913    0.47894    0.59364    1.000
    H886     H        0.45489    0.62733    0.61837    1.000
    H887     H        0.51128    0.58156    0.62196    1.000
    H888     H        0.46806    0.53860    0.65902    1.000
    H889     H        0.90689    0.19071    0.20915    1.000
    H890     H        0.90692    0.25007    0.25873    1.000
    H891     H        0.83331    0.18889    0.24275    1.000
    H892     H        0.83386    0.25112    0.19009    1.000
    H893     H        0.83392    0.31344    0.24272    1.000
    H894     H        0.58948    0.81140    0.70656    1.000
    H895     H        0.58776    0.75262    0.75627    1.000
    H896     H        0.66328    0.75210    0.69034    1.000
    H897     H        0.66144    0.68928    0.74280    1.000
    H898     H        0.66180    0.81382    0.74313    1.000
    H899     H        0.09021    0.74895    0.74347    1.000
    H900     H        0.09149    0.80813    0.79309    1.000
    H901     H        0.16397    0.81132    0.75704    1.000
    H902     H        0.16399    0.68678    0.75735    1.000
    H903     H        0.16535    0.74960    0.80983    1.000
    H904     H        0.40652    0.19044    0.29390    1.000
    H905     H        0.40688    0.30795    0.29399    1.000
    H906     H        0.33432    0.18810    0.25722    1.000
    H907     H        0.33467    0.31266    0.25758    1.000
    H908     H        0.33274    0.24973    0.31002    1.000
    H909     H        0.87628    0.75098    0.66007    1.000
    H910     H        0.50240    0.74237    0.01570    1.000
    H911     H        0.54445    0.76301    0.05342    1.000
    H912     H        0.55910    0.84434    0.98495    1.000
    H913     H        0.55468    0.73686    0.95445    1.000
    H914     H        0.59996    0.75414    0.99397    1.000
    H915     H        0.62171    0.25020    0.16040    1.000
    H916     H        0.96318    0.20856    0.61049    1.000
    H917     H        0.96386    0.32599    0.60872    1.000
    H918     H        0.98912    0.20018    0.53357    1.000
    H919     H        0.98912    0.32464    0.53186    1.000
    H920     H        0.93690    0.26246    0.53856    1.000
    H921     H        0.12063    0.24993    0.33901    1.000
    H922     H        0.46296    0.20411    0.89819    1.000
    H923     H        0.51223    0.25164    0.91282    1.000
    H924     H        0.48258    0.16164    0.97262    1.000
    H925     H        0.43253    0.23263    0.97188    1.000
    H926     H        0.48582    0.28230    0.98733    1.000
    H927     H        0.37792    0.74949    0.83831    1.000
    H928     H        0.03835    0.78872    0.40517    1.000
    H929     H        0.98880    0.75163    0.42775    1.000
    H930     H        0.07722    0.75362    0.47511    1.000
    H931     H        0.02377    0.71966    0.49852    1.000
    H932     H        0.03319    0.83792    0.48189    1.000
    H933     H        0.85611    0.92676    0.89038    1.000
    H934     H        0.96657    0.98237    0.94366    1.000
    H935     H        0.97921    0.42934    0.91207    1.000
    H936     H        0.80863    0.51234    0.87165    1.000
    H937     H        0.72729    0.89003    0.68818    1.000
    H938     H        0.94261    0.52548    0.59667    1.000
    H939     H        0.01283    0.26582    0.60412    1.000
    H940     H        0.97664    0.52944    0.41315    1.000
    H941     H        0.97087    0.92621    0.42564    1.000
    H942     H        0.77098    0.46550    0.14498    1.000
    H943     H        0.55999    0.49300    0.03369    1.000
    H944     H        0.47598    0.55477    0.03374    1.000
    H945     H        0.45385    0.97385    0.01782    1.000
    H946     H        0.54217    0.66024    0.02567    1.000
    H947     H        0.18024    0.57116    0.03130    1.000
    H948     H        0.17382    0.82733    0.03224    1.000
    H949     H        0.02359    0.48442    0.06134    1.000
    H950     H        0.33037    0.86945    0.65799    1.000
    H951     H        0.69275    0.85264    0.48211    1.000
    H952     H        0.67558    0.55159    0.46818    1.000
    H953     H        0.67772    0.56262    0.67069    1.000
    H954     H        0.58914    0.69389    0.70654    1.000
    H955     H        0.32010    0.43626    0.32991    1.000
    H956     H        0.31189    0.49081    0.62703    1.000
    H957     H        0.30237    0.35281    0.51848    1.000
    H958     H        0.32052    0.06079    0.32860    1.000
    H959     H        0.30321    0.13459    0.57196    1.000
    H960     H        0.22750    0.53524    0.85531    1.000
    H961     H        0.09150    0.69062    0.79333    1.000
    H962     H        0.03194    0.67604    0.42014    1.000
    H963     H        0.22717    0.89202    0.80791    1.000
    H964     H        0.06577    0.49325    0.41721    1.000
    H965     H        0.40837    0.24933    0.24422    1.000
    H966     H        0.51662    0.93030    0.40310    1.000
    H967     H        0.67372    0.37271    0.34699    1.000
    H968     H        0.57220    0.52743    0.40912    1.000
    H969     H        0.67948    0.11267    0.35474    1.000
    H970     H        0.93081    0.97701    0.55642    1.000
    H971     H        0.18474    0.51513    0.12902    1.000
    H972     H        0.14122    0.07984    0.10809    1.000
    H973     H        0.48187    0.43398    0.59809    1.000
    H974     H        0.52375    0.43262    0.96486    1.000
    H975     H        0.44231    0.50722    0.96338    1.000
    H976     H        0.83774    0.36519    0.91708    1.000
    H977     H        0.78167    0.15781    0.93301    1.000
    H978     H        0.03069    0.01484    0.05886    1.000
    H979     H        0.53721    0.00920    0.03366    1.000
    H980     H        0.77076    0.11106    0.18719    1.000
    H981     H        0.90746    0.30822    0.20881    1.000
    H982     H        0.05158    0.00474    0.40703    1.000
    H983     H        0.60071    0.02353    0.90916    1.000
