# CIF file generated by openbabel 3.1.0, see https://openbabel.org
data_I
_chemical_name_common 'image0'
_cell_length_a 21.9285
_cell_length_b 21.9285
_cell_length_c 16.7265
_cell_angle_alpha 90
_cell_angle_beta 90
_cell_angle_gamma 90
_space_group_name_H-M_alt 'P 1'
_space_group_name_Hall 'P 1'
loop_
    _symmetry_equiv_pos_as_xyz
    x,y,z
loop_
    _atom_site_label
    _atom_site_type_symbol
    _atom_site_fract_x
    _atom_site_fract_y
    _atom_site_fract_z
    _atom_site_occupancy
    La1      La       0.32215    0.35802    0.86356    1.000
    O1       O        0.24850    0.38900    0.75550    1.000
    O2       O        0.22130    0.43140    0.64010    1.000
    O3       O        0.51530    0.42420    0.79870    1.000
    O4       O        0.43340    0.38500    0.85670    1.000
    N1       N        0.36290    0.41720    0.73600    1.000
    C1       C        0.42160    0.43330    0.73100    1.000
    C2       C        0.44420    0.46700    0.66820    1.000
    H1       H        0.48530    0.47750    0.66640    1.000
    C3       C        0.40540    0.48500    0.60810    1.000
    H2       H        0.41970    0.50790    0.56530    1.000
    C4       C        0.34430    0.46810    0.61270    1.000
    H3       H        0.31700    0.47880    0.57240    1.000
    C5       C        0.32520    0.43530    0.67790    1.000
    C6       C        0.26000    0.41710    0.69060    1.000
    C7       C        0.45960    0.41270    0.80010    1.000
    La2      La       0.82215    0.85802    0.36356    1.000
    O5       O        0.74850    0.88900    0.25550    1.000
    O6       O        0.72130    0.93140    0.14010    1.000
    O7       O        0.01530    0.92420    0.29870    1.000
    O8       O        0.93340    0.88500    0.35670    1.000
    N2       N        0.86290    0.91720    0.23600    1.000
    C8       C        0.92160    0.93330    0.23100    1.000
    C9       C        0.94420    0.96700    0.16820    1.000
    H4       H        0.98530    0.97750    0.16640    1.000
    C10      C        0.90540    0.98500    0.10810    1.000
    H5       H        0.91970    0.00790    0.06530    1.000
    C11      C        0.84430    0.96810    0.11270    1.000
    H6       H        0.81700    0.97880    0.07240    1.000
    C12      C        0.82520    0.93530    0.17790    1.000
    C13      C        0.76000    0.91710    0.19060    1.000
    C14      C        0.95960    0.91270    0.30010    1.000
    La3      La       0.17785    0.64198    0.36356    1.000
    O9       O        0.25150    0.61100    0.25550    1.000
    O10      O        0.27870    0.56860    0.14010    1.000
    O11      O        0.98470    0.57580    0.29870    1.000
    O12      O        0.06660    0.61500    0.35670    1.000
    N3       N        0.13710    0.58280    0.23600    1.000
    C15      C        0.07840    0.56670    0.23100    1.000
    C16      C        0.05580    0.53300    0.16820    1.000
    H7       H        0.01470    0.52250    0.16640    1.000
    C17      C        0.09460    0.51500    0.10810    1.000
    H8       H        0.08030    0.49210    0.06530    1.000
    C18      C        0.15570    0.53190    0.11270    1.000
    H9       H        0.18300    0.52120    0.07240    1.000
    C19      C        0.17480    0.56470    0.17790    1.000
    C20      C        0.24000    0.58290    0.19060    1.000
    C21      C        0.04040    0.58730    0.30010    1.000
    La4      La       0.67785    0.14198    0.86356    1.000
    O13      O        0.75150    0.11100    0.75550    1.000
    O14      O        0.77870    0.06860    0.64010    1.000
    O15      O        0.48470    0.07580    0.79870    1.000
    O16      O        0.56660    0.11500    0.85670    1.000
    N4       N        0.63710    0.08280    0.73600    1.000
    C22      C        0.57840    0.06670    0.73100    1.000
    C23      C        0.55580    0.03300    0.66820    1.000
    H10      H        0.51470    0.02250    0.66640    1.000
    C24      C        0.59460    0.01500    0.60810    1.000
    H11      H        0.58030    0.99210    0.56530    1.000
    C25      C        0.65570    0.03190    0.61270    1.000
    H12      H        0.68300    0.02120    0.57240    1.000
    C26      C        0.67480    0.06470    0.67790    1.000
    C27      C        0.74000    0.08290    0.69060    1.000
    C28      C        0.54040    0.08730    0.80010    1.000
    La5      La       0.39198    0.57215    0.11356    1.000
    O17      O        0.36100    0.49850    0.00550    1.000
    O18      O        0.31860    0.47130    0.89010    1.000
    O19      O        0.32580    0.76530    0.04870    1.000
    O20      O        0.36500    0.68340    0.10670    1.000
    N5       N        0.33280    0.61290    0.98600    1.000
    C29      C        0.31670    0.67160    0.98100    1.000
    C30      C        0.28300    0.69420    0.91820    1.000
    H13      H        0.27250    0.73530    0.91640    1.000
    C31      C        0.26500    0.65540    0.85810    1.000
    H14      H        0.24210    0.66970    0.81530    1.000
    C32      C        0.28190    0.59430    0.86270    1.000
    H15      H        0.27120    0.56700    0.82240    1.000
    C33      C        0.31470    0.57520    0.92790    1.000
    C34      C        0.33290    0.51000    0.94060    1.000
    C35      C        0.33730    0.70960    0.05010    1.000
    La6      La       0.89198    0.07215    0.61356    1.000
    O21      O        0.86100    0.99850    0.50550    1.000
    O22      O        0.81860    0.97130    0.39010    1.000
    O23      O        0.82580    0.26530    0.54870    1.000
    O24      O        0.86500    0.18340    0.60670    1.000
    N6       N        0.83280    0.11290    0.48600    1.000
    C36      C        0.81670    0.17160    0.48100    1.000
    C37      C        0.78300    0.19420    0.41820    1.000
    H16      H        0.77250    0.23530    0.41640    1.000
    C38      C        0.76500    0.15540    0.35810    1.000
    H17      H        0.74210    0.16970    0.31530    1.000
    C39      C        0.78190    0.09430    0.36270    1.000
    H18      H        0.77120    0.06700    0.32240    1.000
    C40      C        0.81470    0.07520    0.42790    1.000
    C41      C        0.83290    0.01000    0.44060    1.000
    C42      C        0.83730    0.20960    0.55010    1.000
    La7      La       0.10802    0.42785    0.61356    1.000
    O25      O        0.13900    0.50150    0.50550    1.000
    O26      O        0.18140    0.52870    0.39010    1.000
    O27      O        0.17420    0.23470    0.54870    1.000
    O28      O        0.13500    0.31660    0.60670    1.000
    N7       N        0.16720    0.38710    0.48600    1.000
    C43      C        0.18330    0.32840    0.48100    1.000
    C44      C        0.21700    0.30580    0.41820    1.000
    H19      H        0.22750    0.26470    0.41640    1.000
    C45      C        0.23500    0.34460    0.35810    1.000
    H20      H        0.25790    0.33030    0.31530    1.000
    C46      C        0.21810    0.40570    0.36270    1.000
    H21      H        0.22880    0.43300    0.32240    1.000
    C47      C        0.18530    0.42480    0.42790    1.000
    C48      C        0.16710    0.49000    0.44060    1.000
    C49      C        0.16270    0.29040    0.55010    1.000
    La8      La       0.60802    0.92785    0.11356    1.000
    O29      O        0.63900    0.00150    0.00550    1.000
    O30      O        0.68140    0.02870    0.89010    1.000
    O31      O        0.67420    0.73470    0.04870    1.000
    O32      O        0.63500    0.81660    0.10670    1.000
    N8       N        0.66720    0.88710    0.98600    1.000
    C50      C        0.68330    0.82840    0.98100    1.000
    C51      C        0.71700    0.80580    0.91820    1.000
    H22      H        0.72750    0.76470    0.91640    1.000
    C52      C        0.73500    0.84460    0.85810    1.000
    H23      H        0.75790    0.83030    0.81530    1.000
    C53      C        0.71810    0.90570    0.86270    1.000
    H24      H        0.72880    0.93300    0.82240    1.000
    C54      C        0.68530    0.92480    0.92790    1.000
    C55      C        0.66710    0.99000    0.94060    1.000
    C56      C        0.66270    0.79040    0.05010    1.000
    La9      La       0.67785    0.64198    0.13644    1.000
    O33      O        0.75150    0.61100    0.24450    1.000
    O34      O        0.77870    0.56860    0.35990    1.000
    O35      O        0.48470    0.57580    0.20130    1.000
    O36      O        0.56660    0.61500    0.14330    1.000
    N9       N        0.63710    0.58280    0.26400    1.000
    C57      C        0.57840    0.56670    0.26900    1.000
    C58      C        0.55580    0.53300    0.33180    1.000
    H25      H        0.51470    0.52250    0.33360    1.000
    C59      C        0.59460    0.51500    0.39190    1.000
    H26      H        0.58030    0.49210    0.43470    1.000
    C60      C        0.65570    0.53190    0.38730    1.000
    H27      H        0.68300    0.52120    0.42760    1.000
    C61      C        0.67480    0.56470    0.32210    1.000
    C62      C        0.74000    0.58290    0.30940    1.000
    C63      C        0.54040    0.58730    0.19990    1.000
    La10     La       0.17785    0.14198    0.63644    1.000
    O37      O        0.25150    0.11100    0.74450    1.000
    O38      O        0.27870    0.06860    0.85990    1.000
    O39      O        0.98470    0.07580    0.70130    1.000
    O40      O        0.06660    0.11500    0.64330    1.000
    N10      N        0.13710    0.08280    0.76400    1.000
    C64      C        0.07840    0.06670    0.76900    1.000
    C65      C        0.05580    0.03300    0.83180    1.000
    H28      H        0.01470    0.02250    0.83360    1.000
    C66      C        0.09460    0.01500    0.89190    1.000
    H29      H        0.08030    0.99210    0.93470    1.000
    C67      C        0.15570    0.03190    0.88730    1.000
    H30      H        0.18300    0.02120    0.92760    1.000
    C68      C        0.17480    0.06470    0.82210    1.000
    C69      C        0.24000    0.08290    0.80940    1.000
    C70      C        0.04040    0.08730    0.69990    1.000
    La11     La       0.82215    0.35802    0.63644    1.000
    O41      O        0.74850    0.38900    0.74450    1.000
    O42      O        0.72130    0.43140    0.85990    1.000
    O43      O        0.01530    0.42420    0.70130    1.000
    O44      O        0.93340    0.38500    0.64330    1.000
    N11      N        0.86290    0.41720    0.76400    1.000
    C71      C        0.92160    0.43330    0.76900    1.000
    C72      C        0.94420    0.46700    0.83180    1.000
    H31      H        0.98530    0.47750    0.83360    1.000
    C73      C        0.90540    0.48500    0.89190    1.000
    H32      H        0.91970    0.50790    0.93470    1.000
    C74      C        0.84430    0.46810    0.88730    1.000
    H33      H        0.81700    0.47880    0.92760    1.000
    C75      C        0.82520    0.43530    0.82210    1.000
    C76      C        0.76000    0.41710    0.80940    1.000
    C77      C        0.95960    0.41270    0.69990    1.000
    La12     La       0.32215    0.85802    0.13644    1.000
    O45      O        0.24850    0.88900    0.24450    1.000
    O46      O        0.22130    0.93140    0.35990    1.000
    O47      O        0.51530    0.92420    0.20130    1.000
    O48      O        0.43340    0.88500    0.14330    1.000
    N12      N        0.36290    0.91720    0.26400    1.000
    C78      C        0.42160    0.93330    0.26900    1.000
    C79      C        0.44420    0.96700    0.33180    1.000
    H34      H        0.48530    0.97750    0.33360    1.000
    C80      C        0.40540    0.98500    0.39190    1.000
    H35      H        0.41970    0.00790    0.43470    1.000
    C81      C        0.34430    0.96810    0.38730    1.000
    H36      H        0.31700    0.97880    0.42760    1.000
    C82      C        0.32520    0.93530    0.32210    1.000
    C83      C        0.26000    0.91710    0.30940    1.000
    C84      C        0.45960    0.91270    0.19990    1.000
    La13     La       0.60802    0.42785    0.88644    1.000
    O49      O        0.63900    0.50150    0.99450    1.000
    O50      O        0.68140    0.52870    0.10990    1.000
    O51      O        0.67420    0.23470    0.95130    1.000
    O52      O        0.63500    0.31660    0.89330    1.000
    N13      N        0.66720    0.38710    0.01400    1.000
    C85      C        0.68330    0.32840    0.01900    1.000
    C86      C        0.71700    0.30580    0.08180    1.000
    H37      H        0.72750    0.26470    0.08360    1.000
    C87      C        0.73500    0.34460    0.14190    1.000
    H38      H        0.75790    0.33030    0.18470    1.000
    C88      C        0.71810    0.40570    0.13730    1.000
    H39      H        0.72880    0.43300    0.17760    1.000
    C89      C        0.68530    0.42480    0.07210    1.000
    C90      C        0.66710    0.49000    0.05940    1.000
    C91      C        0.66270    0.29040    0.94990    1.000
    La14     La       0.10802    0.92785    0.38644    1.000
    O53      O        0.13900    0.00150    0.49450    1.000
    O54      O        0.18140    0.02870    0.60990    1.000
    O55      O        0.17420    0.73470    0.45130    1.000
    O56      O        0.13500    0.81660    0.39330    1.000
    N14      N        0.16720    0.88710    0.51400    1.000
    C92      C        0.18330    0.82840    0.51900    1.000
    C93      C        0.21700    0.80580    0.58180    1.000
    H40      H        0.22750    0.76470    0.58360    1.000
    C94      C        0.23500    0.84460    0.64190    1.000
    H41      H        0.25790    0.83030    0.68470    1.000
    C95      C        0.21810    0.90570    0.63730    1.000
    H42      H        0.22880    0.93300    0.67760    1.000
    C96      C        0.18530    0.92480    0.57210    1.000
    C97      C        0.16710    0.99000    0.55940    1.000
    C98      C        0.16270    0.79040    0.44990    1.000
    La15     La       0.89198    0.57215    0.38644    1.000
    O57      O        0.86100    0.49850    0.49450    1.000
    O58      O        0.81860    0.47130    0.60990    1.000
    O59      O        0.82580    0.76530    0.45130    1.000
    O60      O        0.86500    0.68340    0.39330    1.000
    N15      N        0.83280    0.61290    0.51400    1.000
    C99      C        0.81670    0.67160    0.51900    1.000
    C100     C        0.78300    0.69420    0.58180    1.000
    H43      H        0.77250    0.73530    0.58360    1.000
    C101     C        0.76500    0.65540    0.64190    1.000
    H44      H        0.74210    0.66970    0.68470    1.000
    C102     C        0.78190    0.59430    0.63730    1.000
    H45      H        0.77120    0.56700    0.67760    1.000
    C103     C        0.81470    0.57520    0.57210    1.000
    C104     C        0.83290    0.51000    0.55940    1.000
    C105     C        0.83730    0.70960    0.44990    1.000
    La16     La       0.39198    0.07215    0.88644    1.000
    O61      O        0.36100    0.99850    0.99450    1.000
    O62      O        0.31860    0.97130    0.10990    1.000
    O63      O        0.32580    0.26530    0.95130    1.000
    O64      O        0.36500    0.18340    0.89330    1.000
    N16      N        0.33280    0.11290    0.01400    1.000
    C106     C        0.31670    0.17160    0.01900    1.000
    C107     C        0.28300    0.19420    0.08180    1.000
    H46      H        0.27250    0.23530    0.08360    1.000
    C108     C        0.26500    0.15540    0.14190    1.000
    H47      H        0.24210    0.16970    0.18470    1.000
    C109     C        0.28190    0.09430    0.13730    1.000
    H48      H        0.27120    0.06700    0.17760    1.000
    C110     C        0.31470    0.07520    0.07210    1.000
    C111     C        0.33290    0.01000    0.05940    1.000
    C112     C        0.33730    0.20960    0.94990    1.000
