# CIF file generated by openbabel 3.1.0, see https://openbabel.org
data_I
_chemical_name_common 'image0'
_cell_length_a 19.9818
_cell_length_b 19.9818
_cell_length_c 19.9818
_cell_angle_alpha 90
_cell_angle_beta 90
_cell_angle_gamma 90
_space_group_name_H-M_alt 'P 1'
_space_group_name_Hall 'P 1'
loop_
    _symmetry_equiv_pos_as_xyz
    x,y,z
loop_
    _atom_site_label
    _atom_site_type_symbol
    _atom_site_fract_x
    _atom_site_fract_y
    _atom_site_fract_z
    _atom_site_occupancy
    La1      La       0.74739    0.15339    0.00707    1.000
    O1       O        0.64430    0.20980    0.04670    1.000
    O2       O        0.58580    0.29810    0.08090    1.000
    O3       O        0.84370    0.21470    0.95860    1.000
    O4       O        0.88910    0.30170    0.90610    1.000
    N1       N        0.74240    0.28260    0.99940    1.000
    C1       C        0.63480    0.27340    0.05300    1.000
    C2       C        0.68820    0.31750    0.02470    1.000
    C3       C        0.68650    0.38600    0.02700    1.000
    H1       H        0.65080    0.40790    0.04730    1.000
    C4       C        0.73710    0.42140    0.99930    1.000
    H2       H        0.73570    0.46790    0.00030    1.000
    C5       C        0.79170    0.38900    0.96910    1.000
    H3       H        0.82570    0.41260    0.94790    1.000
    C6       C        0.79160    0.31930    0.97300    1.000
    C7       C        0.84550    0.27730    0.94410    1.000
    La2      La       0.75261    0.84661    0.50707    1.000
    O5       O        0.85570    0.79020    0.54670    1.000
    O6       O        0.91420    0.70190    0.58090    1.000
    O7       O        0.65630    0.78530    0.45860    1.000
    O8       O        0.61090    0.69830    0.40610    1.000
    N2       N        0.75760    0.71740    0.49940    1.000
    C8       C        0.86520    0.72660    0.55300    1.000
    C9       C        0.81180    0.68250    0.52470    1.000
    C10      C        0.81350    0.61400    0.52700    1.000
    H4       H        0.84920    0.59210    0.54730    1.000
    C11      C        0.76290    0.57860    0.49930    1.000
    H5       H        0.76430    0.53210    0.50030    1.000
    C12      C        0.70830    0.61100    0.46910    1.000
    H6       H        0.67430    0.58740    0.44790    1.000
    C13      C        0.70840    0.68070    0.47300    1.000
    C14      C        0.65450    0.72270    0.44410    1.000
    La3      La       0.25261    0.65339    0.49293    1.000
    O9       O        0.35570    0.70980    0.45330    1.000
    O10      O        0.41420    0.79810    0.41910    1.000
    O11      O        0.15630    0.71470    0.54140    1.000
    O12      O        0.11090    0.80170    0.59390    1.000
    N3       N        0.25760    0.78260    0.50060    1.000
    C15      C        0.36520    0.77340    0.44700    1.000
    C16      C        0.31180    0.81750    0.47530    1.000
    C17      C        0.31350    0.88600    0.47300    1.000
    H7       H        0.34920    0.90790    0.45270    1.000
    C18      C        0.26290    0.92140    0.50070    1.000
    H8       H        0.26430    0.96790    0.49970    1.000
    C19      C        0.20830    0.88900    0.53090    1.000
    H9       H        0.17430    0.91260    0.55210    1.000
    C20      C        0.20840    0.81930    0.52700    1.000
    C21      C        0.15450    0.77730    0.55590    1.000
    La4      La       0.24739    0.34661    0.99293    1.000
    O13      O        0.14430    0.29020    0.95330    1.000
    O14      O        0.08580    0.20190    0.91910    1.000
    O15      O        0.34370    0.28530    0.04140    1.000
    O16      O        0.38910    0.19830    0.09390    1.000
    N4       N        0.24240    0.21740    0.00060    1.000
    C22      C        0.13480    0.22660    0.94700    1.000
    C23      C        0.18820    0.18250    0.97530    1.000
    C24      C        0.18650    0.11400    0.97300    1.000
    H10      H        0.15080    0.09210    0.95270    1.000
    C25      C        0.23710    0.07860    0.00070    1.000
    H11      H        0.23570    0.03210    0.99970    1.000
    C26      C        0.29170    0.11100    0.03090    1.000
    H12      H        0.32570    0.08740    0.05210    1.000
    C27      C        0.29160    0.18070    0.02700    1.000
    C28      C        0.34550    0.22270    0.05590    1.000
    La5      La       0.00707    0.74739    0.15339    1.000
    O17      O        0.04670    0.64430    0.20980    1.000
    O18      O        0.08090    0.58580    0.29810    1.000
    O19      O        0.95860    0.84370    0.21470    1.000
    O20      O        0.90610    0.88910    0.30170    1.000
    N5       N        0.99940    0.74240    0.28260    1.000
    C29      C        0.05300    0.63480    0.27340    1.000
    C30      C        0.02470    0.68820    0.31750    1.000
    C31      C        0.02700    0.68650    0.38600    1.000
    H13      H        0.04730    0.65080    0.40790    1.000
    C32      C        0.99930    0.73710    0.42140    1.000
    H14      H        0.00030    0.73570    0.46790    1.000
    C33      C        0.96910    0.79170    0.38900    1.000
    H15      H        0.94790    0.82570    0.41260    1.000
    C34      C        0.97300    0.79160    0.31930    1.000
    C35      C        0.94410    0.84550    0.27730    1.000
    La6      La       0.50707    0.75261    0.84661    1.000
    O21      O        0.54670    0.85570    0.79020    1.000
    O22      O        0.58090    0.91420    0.70190    1.000
    O23      O        0.45860    0.65630    0.78530    1.000
    O24      O        0.40610    0.61090    0.69830    1.000
    N6       N        0.49940    0.75760    0.71740    1.000
    C36      C        0.55300    0.86520    0.72660    1.000
    C37      C        0.52470    0.81180    0.68250    1.000
    C38      C        0.52700    0.81350    0.61400    1.000
    H16      H        0.54730    0.84920    0.59210    1.000
    C39      C        0.49930    0.76290    0.57860    1.000
    H17      H        0.50030    0.76430    0.53210    1.000
    C40      C        0.46910    0.70830    0.61100    1.000
    H18      H        0.44790    0.67430    0.58740    1.000
    C41      C        0.47300    0.70840    0.68070    1.000
    C42      C        0.44410    0.65450    0.72270    1.000
    La7      La       0.49293    0.25261    0.65339    1.000
    O25      O        0.45330    0.35570    0.70980    1.000
    O26      O        0.41910    0.41420    0.79810    1.000
    O27      O        0.54140    0.15630    0.71470    1.000
    O28      O        0.59390    0.11090    0.80170    1.000
    N7       N        0.50060    0.25760    0.78260    1.000
    C43      C        0.44700    0.36520    0.77340    1.000
    C44      C        0.47530    0.31180    0.81750    1.000
    C45      C        0.47300    0.31350    0.88600    1.000
    H19      H        0.45270    0.34920    0.90790    1.000
    C46      C        0.50070    0.26290    0.92140    1.000
    H20      H        0.49970    0.26430    0.96790    1.000
    C47      C        0.53090    0.20830    0.88900    1.000
    H21      H        0.55210    0.17430    0.91260    1.000
    C48      C        0.52700    0.20840    0.81930    1.000
    C49      C        0.55590    0.15450    0.77730    1.000
    La8      La       0.99293    0.24739    0.34661    1.000
    O29      O        0.95330    0.14430    0.29020    1.000
    O30      O        0.91910    0.08580    0.20190    1.000
    O31      O        0.04140    0.34370    0.28530    1.000
    O32      O        0.09390    0.38910    0.19830    1.000
    N8       N        0.00060    0.24240    0.21740    1.000
    C50      C        0.94700    0.13480    0.22660    1.000
    C51      C        0.97530    0.18820    0.18250    1.000
    C52      C        0.97300    0.18650    0.11400    1.000
    H22      H        0.95270    0.15080    0.09210    1.000
    C53      C        0.00070    0.23710    0.07860    1.000
    H23      H        0.99970    0.23570    0.03210    1.000
    C54      C        0.03090    0.29170    0.11100    1.000
    H24      H        0.05210    0.32570    0.08740    1.000
    C55      C        0.02700    0.29160    0.18070    1.000
    C56      C        0.05590    0.34550    0.22270    1.000
    La9      La       0.15339    0.00707    0.74739    1.000
    O33      O        0.20980    0.04670    0.64430    1.000
    O34      O        0.29810    0.08090    0.58580    1.000
    O35      O        0.21470    0.95860    0.84370    1.000
    O36      O        0.30170    0.90610    0.88910    1.000
    N9       N        0.28260    0.99940    0.74240    1.000
    C57      C        0.27340    0.05300    0.63480    1.000
    C58      C        0.31750    0.02470    0.68820    1.000
    C59      C        0.38600    0.02700    0.68650    1.000
    H25      H        0.40790    0.04730    0.65080    1.000
    C60      C        0.42140    0.99930    0.73710    1.000
    H26      H        0.46790    0.00030    0.73570    1.000
    C61      C        0.38900    0.96910    0.79170    1.000
    H27      H        0.41260    0.94790    0.82570    1.000
    C62      C        0.31930    0.97300    0.79160    1.000
    C63      C        0.27730    0.94410    0.84550    1.000
    La10     La       0.84661    0.50707    0.75261    1.000
    O37      O        0.79020    0.54670    0.85570    1.000
    O38      O        0.70190    0.58090    0.91420    1.000
    O39      O        0.78530    0.45860    0.65630    1.000
    O40      O        0.69830    0.40610    0.61090    1.000
    N10      N        0.71740    0.49940    0.75760    1.000
    C64      C        0.72660    0.55300    0.86520    1.000
    C65      C        0.68250    0.52470    0.81180    1.000
    C66      C        0.61400    0.52700    0.81350    1.000
    H28      H        0.59210    0.54730    0.84920    1.000
    C67      C        0.57860    0.49930    0.76290    1.000
    H29      H        0.53210    0.50030    0.76430    1.000
    C68      C        0.61100    0.46910    0.70830    1.000
    H30      H        0.58740    0.44790    0.67430    1.000
    C69      C        0.68070    0.47300    0.70840    1.000
    C70      C        0.72270    0.44410    0.65450    1.000
    La11     La       0.65339    0.49293    0.25261    1.000
    O41      O        0.70980    0.45330    0.35570    1.000
    O42      O        0.79810    0.41910    0.41420    1.000
    O43      O        0.71470    0.54140    0.15630    1.000
    O44      O        0.80170    0.59390    0.11090    1.000
    N11      N        0.78260    0.50060    0.25760    1.000
    C71      C        0.77340    0.44700    0.36520    1.000
    C72      C        0.81750    0.47530    0.31180    1.000
    C73      C        0.88600    0.47300    0.31350    1.000
    H31      H        0.90790    0.45270    0.34920    1.000
    C74      C        0.92140    0.50070    0.26290    1.000
    H32      H        0.96790    0.49970    0.26430    1.000
    C75      C        0.88900    0.53090    0.20830    1.000
    H33      H        0.91260    0.55210    0.17430    1.000
    C76      C        0.81930    0.52700    0.20840    1.000
    C77      C        0.77730    0.55590    0.15450    1.000
    La12     La       0.34661    0.99293    0.24739    1.000
    O45      O        0.29020    0.95330    0.14430    1.000
    O46      O        0.20190    0.91910    0.08580    1.000
    O47      O        0.28530    0.04140    0.34370    1.000
    O48      O        0.19830    0.09390    0.38910    1.000
    N12      N        0.21740    0.00060    0.24240    1.000
    C78      C        0.22660    0.94700    0.13480    1.000
    C79      C        0.18250    0.97530    0.18820    1.000
    C80      C        0.11400    0.97300    0.18650    1.000
    H34      H        0.09210    0.95270    0.15080    1.000
    C81      C        0.07860    0.00070    0.23710    1.000
    H35      H        0.03210    0.99970    0.23570    1.000
    C82      C        0.11100    0.03090    0.29170    1.000
    H36      H        0.08740    0.05210    0.32570    1.000
    C83      C        0.18070    0.02700    0.29160    1.000
    C84      C        0.22270    0.05590    0.34550    1.000
    La13     La       0.25261    0.84661    0.99293    1.000
    O49      O        0.35570    0.79020    0.95330    1.000
    O50      O        0.41420    0.70190    0.91910    1.000
    O51      O        0.15630    0.78530    0.04140    1.000
    O52      O        0.11090    0.69830    0.09390    1.000
    N13      N        0.25760    0.71740    0.00060    1.000
    C85      C        0.36520    0.72660    0.94700    1.000
    C86      C        0.31180    0.68250    0.97530    1.000
    C87      C        0.31350    0.61400    0.97300    1.000
    H37      H        0.34920    0.59210    0.95270    1.000
    C88      C        0.26290    0.57860    0.00070    1.000
    H38      H        0.26430    0.53210    0.99970    1.000
    C89      C        0.20830    0.61100    0.03090    1.000
    H39      H        0.17430    0.58740    0.05210    1.000
    C90      C        0.20840    0.68070    0.02700    1.000
    C91      C        0.15450    0.72270    0.05590    1.000
    La14     La       0.24739    0.15339    0.49293    1.000
    O53      O        0.14430    0.20980    0.45330    1.000
    O54      O        0.08580    0.29810    0.41910    1.000
    O55      O        0.34370    0.21470    0.54140    1.000
    O56      O        0.38910    0.30170    0.59390    1.000
    N14      N        0.24240    0.28260    0.50060    1.000
    C92      C        0.13480    0.27340    0.44700    1.000
    C93      C        0.18820    0.31750    0.47530    1.000
    C94      C        0.18650    0.38600    0.47300    1.000
    H40      H        0.15080    0.40790    0.45270    1.000
    C95      C        0.23710    0.42140    0.50070    1.000
    H41      H        0.23570    0.46790    0.49970    1.000
    C96      C        0.29170    0.38900    0.53090    1.000
    H42      H        0.32570    0.41260    0.55210    1.000
    C97      C        0.29160    0.31930    0.52700    1.000
    C98      C        0.34550    0.27730    0.55590    1.000
    La15     La       0.74739    0.34661    0.50707    1.000
    O57      O        0.64430    0.29020    0.54670    1.000
    O58      O        0.58580    0.20190    0.58090    1.000
    O59      O        0.84370    0.28530    0.45860    1.000
    O60      O        0.88910    0.19830    0.40610    1.000
    N15      N        0.74240    0.21740    0.49940    1.000
    C99      C        0.63480    0.22660    0.55300    1.000
    C100     C        0.68820    0.18250    0.52470    1.000
    C101     C        0.68650    0.11400    0.52700    1.000
    H43      H        0.65080    0.09210    0.54730    1.000
    C102     C        0.73710    0.07860    0.49930    1.000
    H44      H        0.73570    0.03210    0.50030    1.000
    C103     C        0.79170    0.11100    0.46910    1.000
    H45      H        0.82570    0.08740    0.44790    1.000
    C104     C        0.79160    0.18070    0.47300    1.000
    C105     C        0.84550    0.22270    0.44410    1.000
    La16     La       0.75261    0.65339    0.00707    1.000
    O61      O        0.85570    0.70980    0.04670    1.000
    O62      O        0.91420    0.79810    0.08090    1.000
    O63      O        0.65630    0.71470    0.95860    1.000
    O64      O        0.61090    0.80170    0.90610    1.000
    N16      N        0.75760    0.78260    0.99940    1.000
    C106     C        0.86520    0.77340    0.05300    1.000
    C107     C        0.81180    0.81750    0.02470    1.000
    C108     C        0.81350    0.88600    0.02700    1.000
    H46      H        0.84920    0.90790    0.04730    1.000
    C109     C        0.76290    0.92140    0.99930    1.000
    H47      H        0.76430    0.96790    0.00030    1.000
    C110     C        0.70830    0.88900    0.96910    1.000
    H48      H        0.67430    0.91260    0.94790    1.000
    C111     C        0.70840    0.81930    0.97300    1.000
    C112     C        0.65450    0.77730    0.94410    1.000
    La17     La       0.99293    0.25261    0.84661    1.000
    O65      O        0.95330    0.35570    0.79020    1.000
    O66      O        0.91910    0.41420    0.70190    1.000
    O67      O        0.04140    0.15630    0.78530    1.000
    O68      O        0.09390    0.11090    0.69830    1.000
    N17      N        0.00060    0.25760    0.71740    1.000
    C113     C        0.94700    0.36520    0.72660    1.000
    C114     C        0.97530    0.31180    0.68250    1.000
    C115     C        0.97300    0.31350    0.61400    1.000
    H49      H        0.95270    0.34920    0.59210    1.000
    C116     C        0.00070    0.26290    0.57860    1.000
    H50      H        0.99970    0.26430    0.53210    1.000
    C117     C        0.03090    0.20830    0.61100    1.000
    H51      H        0.05210    0.17430    0.58740    1.000
    C118     C        0.02700    0.20840    0.68070    1.000
    C119     C        0.05590    0.15450    0.72270    1.000
    La18     La       0.49293    0.24739    0.15339    1.000
    O69      O        0.45330    0.14430    0.20980    1.000
    O70      O        0.41910    0.08580    0.29810    1.000
    O71      O        0.54140    0.34370    0.21470    1.000
    O72      O        0.59390    0.38910    0.30170    1.000
    N18      N        0.50060    0.24240    0.28260    1.000
    C120     C        0.44700    0.13480    0.27340    1.000
    C121     C        0.47530    0.18820    0.31750    1.000
    C122     C        0.47300    0.18650    0.38600    1.000
    H52      H        0.45270    0.15080    0.40790    1.000
    C123     C        0.50070    0.23710    0.42140    1.000
    H53      H        0.49970    0.23570    0.46790    1.000
    C124     C        0.53090    0.29170    0.38900    1.000
    H54      H        0.55210    0.32570    0.41260    1.000
    C125     C        0.52700    0.29160    0.31930    1.000
    C126     C        0.55590    0.34550    0.27730    1.000
    La19     La       0.50707    0.74739    0.34661    1.000
    O73      O        0.54670    0.64430    0.29020    1.000
    O74      O        0.58090    0.58580    0.20190    1.000
    O75      O        0.45860    0.84370    0.28530    1.000
    O76      O        0.40610    0.88910    0.19830    1.000
    N19      N        0.49940    0.74240    0.21740    1.000
    C127     C        0.55300    0.63480    0.22660    1.000
    C128     C        0.52470    0.68820    0.18250    1.000
    C129     C        0.52700    0.68650    0.11400    1.000
    H55      H        0.54730    0.65080    0.09210    1.000
    C130     C        0.49930    0.73710    0.07860    1.000
    H56      H        0.50030    0.73570    0.03210    1.000
    C131     C        0.46910    0.79170    0.11100    1.000
    H57      H        0.44790    0.82570    0.08740    1.000
    C132     C        0.47300    0.79160    0.18070    1.000
    C133     C        0.44410    0.84550    0.22270    1.000
    La20     La       0.00707    0.75261    0.65339    1.000
    O77      O        0.04670    0.85570    0.70980    1.000
    O78      O        0.08090    0.91420    0.79810    1.000
    O79      O        0.95860    0.65630    0.71470    1.000
    O80      O        0.90610    0.61090    0.80170    1.000
    N20      N        0.99940    0.75760    0.78260    1.000
    C134     C        0.05300    0.86520    0.77340    1.000
    C135     C        0.02470    0.81180    0.81750    1.000
    C136     C        0.02700    0.81350    0.88600    1.000
    H58      H        0.04730    0.84920    0.90790    1.000
    C137     C        0.99930    0.76290    0.92140    1.000
    H59      H        0.00030    0.76430    0.96790    1.000
    C138     C        0.96910    0.70830    0.88900    1.000
    H60      H        0.94790    0.67430    0.91260    1.000
    C139     C        0.97300    0.70840    0.81930    1.000
    C140     C        0.94410    0.65450    0.77730    1.000
    La21     La       0.84661    0.99293    0.25261    1.000
    O81      O        0.79020    0.95330    0.35570    1.000
    O82      O        0.70190    0.91910    0.41420    1.000
    O83      O        0.78530    0.04140    0.15630    1.000
    O84      O        0.69830    0.09390    0.11090    1.000
    N21      N        0.71740    0.00060    0.25760    1.000
    C141     C        0.72660    0.94700    0.36520    1.000
    C142     C        0.68250    0.97530    0.31180    1.000
    C143     C        0.61400    0.97300    0.31350    1.000
    H61      H        0.59210    0.95270    0.34920    1.000
    C144     C        0.57860    0.00070    0.26290    1.000
    H62      H        0.53210    0.99970    0.26430    1.000
    C145     C        0.61100    0.03090    0.20830    1.000
    H63      H        0.58740    0.05210    0.17430    1.000
    C146     C        0.68070    0.02700    0.20840    1.000
    C147     C        0.72270    0.05590    0.15450    1.000
    La22     La       0.15339    0.49293    0.24739    1.000
    O85      O        0.20980    0.45330    0.14430    1.000
    O86      O        0.29810    0.41910    0.08580    1.000
    O87      O        0.21470    0.54140    0.34370    1.000
    O88      O        0.30170    0.59390    0.38910    1.000
    N22      N        0.28260    0.50060    0.24240    1.000
    C148     C        0.27340    0.44700    0.13480    1.000
    C149     C        0.31750    0.47530    0.18820    1.000
    C150     C        0.38600    0.47300    0.18650    1.000
    H64      H        0.40790    0.45270    0.15080    1.000
    C151     C        0.42140    0.50070    0.23710    1.000
    H65      H        0.46790    0.49970    0.23570    1.000
    C152     C        0.38900    0.53090    0.29170    1.000
    H66      H        0.41260    0.55210    0.32570    1.000
    C153     C        0.31930    0.52700    0.29160    1.000
    C154     C        0.27730    0.55590    0.34550    1.000
    La23     La       0.34661    0.50707    0.74739    1.000
    O89      O        0.29020    0.54670    0.64430    1.000
    O90      O        0.20190    0.58090    0.58580    1.000
    O91      O        0.28530    0.45860    0.84370    1.000
    O92      O        0.19830    0.40610    0.88910    1.000
    N23      N        0.21740    0.49940    0.74240    1.000
    C155     C        0.22660    0.55300    0.63480    1.000
    C156     C        0.18250    0.52470    0.68820    1.000
    C157     C        0.11400    0.52700    0.68650    1.000
    H67      H        0.09210    0.54730    0.65080    1.000
    C158     C        0.07860    0.49930    0.73710    1.000
    H68      H        0.03210    0.50030    0.73570    1.000
    C159     C        0.11100    0.46910    0.79170    1.000
    H69      H        0.08740    0.44790    0.82570    1.000
    C160     C        0.18070    0.47300    0.79160    1.000
    C161     C        0.22270    0.44410    0.84550    1.000
    La24     La       0.65339    0.00707    0.75261    1.000
    O93      O        0.70980    0.04670    0.85570    1.000
    O94      O        0.79810    0.08090    0.91420    1.000
    O95      O        0.71470    0.95860    0.65630    1.000
    O96      O        0.80170    0.90610    0.61090    1.000
    N24      N        0.78260    0.99940    0.75760    1.000
    C162     C        0.77340    0.05300    0.86520    1.000
    C163     C        0.81750    0.02470    0.81180    1.000
    C164     C        0.88600    0.02700    0.81350    1.000
    H70      H        0.90790    0.04730    0.84920    1.000
    C165     C        0.92140    0.99930    0.76290    1.000
    H71      H        0.96790    0.00030    0.76430    1.000
    C166     C        0.88900    0.96910    0.70830    1.000
    H72      H        0.91260    0.94790    0.67430    1.000
    C167     C        0.81930    0.97300    0.70840    1.000
    C168     C        0.77730    0.94410    0.65450    1.000
