# CIF file generated by openbabel 3.1.0, see https://openbabel.org
data_I
_chemical_name_common 'image0'
_cell_length_a 21.8879
_cell_length_b 7.0573
_cell_length_c 19.2414
_cell_angle_alpha 90
_cell_angle_beta 122.344
_cell_angle_gamma 90
_space_group_name_H-M_alt 'P 1'
_space_group_name_Hall 'P 1'
loop_
    _symmetry_equiv_pos_as_xyz
    x,y,z
loop_
    _atom_site_label
    _atom_site_type_symbol
    _atom_site_fract_x
    _atom_site_fract_y
    _atom_site_fract_z
    _atom_site_occupancy
    Cd1      Cd       0.23585    0.46950    0.22143    1.000
    O1       O        0.13310    0.39170    0.08840    1.000
    O2       O        0.16910    0.16860    0.18100    1.000
    O3       O        0.31920    0.37280    0.19640    1.000
    O4       O        0.33960    0.08270    0.24420    1.000
    N1       N        0.00710    0.35900    0.94620    1.000
    H1       H        0.97220    0.39640    0.89870    1.000
    H2       H        0.04270    0.43410    0.97650    1.000
    N2       N        0.44100    0.57900    0.24900    1.000
    H3       H        0.40210    0.58960    0.24900    1.000
    H4       H        0.46560    0.67780    0.25270    1.000
    N3       N        0.44800    0.88700    0.26100    1.000
    H5       H        0.41160    0.87670    0.26670    1.000
    H6       H        0.47290    0.78880    0.26550    1.000
    C1       C        0.12460    0.23270    0.11010    1.000
    C2       C        0.05960    0.11560    0.05230    1.000
    C3       C        0.00590    0.18200    0.97360    1.000
    C4       C        0.05170    0.93560    0.07600    1.000
    H7       H        0.08710    0.89230    0.12800    1.000
    C5       C        0.35710    0.23000    0.22450    1.000
    C6       C        0.43100    0.23390    0.23580    1.000
    C7       C        0.46460    0.40150    0.24230    1.000
    C8       C        0.46580    0.06100    0.24480    1.000
    Cd2      Cd       0.73585    0.96950    0.22143    1.000
    O5       O        0.63310    0.89170    0.08840    1.000
    O6       O        0.66910    0.66860    0.18100    1.000
    O7       O        0.81920    0.87280    0.19640    1.000
    O8       O        0.83960    0.58270    0.24420    1.000
    N4       N        0.50710    0.85900    0.94620    1.000
    H8       H        0.47220    0.89640    0.89870    1.000
    H9       H        0.54270    0.93410    0.97650    1.000
    N5       N        0.94100    0.07900    0.24900    1.000
    H10      H        0.90210    0.08960    0.24900    1.000
    H11      H        0.96560    0.17780    0.25270    1.000
    N6       N        0.94800    0.38700    0.26100    1.000
    H12      H        0.91160    0.37670    0.26670    1.000
    H13      H        0.97290    0.28880    0.26550    1.000
    C9       C        0.62460    0.73270    0.11010    1.000
    C10      C        0.55960    0.61560    0.05230    1.000
    C11      C        0.50590    0.68200    0.97360    1.000
    C12      C        0.55170    0.43560    0.07600    1.000
    H14      H        0.58710    0.39230    0.12800    1.000
    C13      C        0.85710    0.73000    0.22450    1.000
    C14      C        0.93100    0.73390    0.23580    1.000
    C15      C        0.96460    0.90150    0.24230    1.000
    C16      C        0.96580    0.56100    0.24480    1.000
    Cd3      Cd       0.76415    0.46950    0.27857    1.000
    O9       O        0.86690    0.39170    0.41160    1.000
    O10      O        0.83090    0.16860    0.31900    1.000
    O11      O        0.68080    0.37280    0.30360    1.000
    O12      O        0.66040    0.08270    0.25580    1.000
    N7       N        0.99290    0.35900    0.55380    1.000
    H15      H        0.02780    0.39640    0.60130    1.000
    H16      H        0.95730    0.43410    0.52350    1.000
    N8       N        0.55900    0.57900    0.25100    1.000
    H17      H        0.59790    0.58960    0.25100    1.000
    H18      H        0.53440    0.67780    0.24730    1.000
    N9       N        0.55200    0.88700    0.23900    1.000
    H19      H        0.58840    0.87670    0.23330    1.000
    H20      H        0.52710    0.78880    0.23450    1.000
    C17      C        0.87540    0.23270    0.38990    1.000
    C18      C        0.94040    0.11560    0.44770    1.000
    C19      C        0.99410    0.18200    0.52640    1.000
    C20      C        0.94830    0.93560    0.42400    1.000
    H21      H        0.91290    0.89230    0.37200    1.000
    C21      C        0.64290    0.23000    0.27550    1.000
    C22      C        0.56900    0.23390    0.26420    1.000
    C23      C        0.53540    0.40150    0.25770    1.000
    C24      C        0.53420    0.06100    0.25520    1.000
    Cd4      Cd       0.26415    0.96950    0.27857    1.000
    O13      O        0.36690    0.89170    0.41160    1.000
    O14      O        0.33090    0.66860    0.31900    1.000
    O15      O        0.18080    0.87280    0.30360    1.000
    O16      O        0.16040    0.58270    0.25580    1.000
    N10      N        0.49290    0.85900    0.55380    1.000
    H22      H        0.52780    0.89640    0.60130    1.000
    H23      H        0.45730    0.93410    0.52350    1.000
    N11      N        0.05900    0.07900    0.25100    1.000
    H24      H        0.09790    0.08960    0.25100    1.000
    H25      H        0.03440    0.17780    0.24730    1.000
    N12      N        0.05200    0.38700    0.23900    1.000
    H26      H        0.08840    0.37670    0.23330    1.000
    H27      H        0.02710    0.28880    0.23450    1.000
    C25      C        0.37540    0.73270    0.38990    1.000
    C26      C        0.44040    0.61560    0.44770    1.000
    C27      C        0.49410    0.68200    0.52640    1.000
    C28      C        0.44830    0.43560    0.42400    1.000
    H28      H        0.41290    0.39230    0.37200    1.000
    C29      C        0.14290    0.73000    0.27550    1.000
    C30      C        0.06900    0.73390    0.26420    1.000
    C31      C        0.03540    0.90150    0.25770    1.000
    C32      C        0.03420    0.56100    0.25520    1.000
    Cd5      Cd       0.76415    0.53050    0.77857    1.000
    O17      O        0.86690    0.60830    0.91160    1.000
    O18      O        0.83090    0.83140    0.81900    1.000
    O19      O        0.68080    0.62720    0.80360    1.000
    O20      O        0.66040    0.91730    0.75580    1.000
    N13      N        0.99290    0.64100    0.05380    1.000
    H29      H        0.02780    0.60360    0.10130    1.000
    H30      H        0.95730    0.56590    0.02350    1.000
    N14      N        0.55900    0.42100    0.75100    1.000
    H31      H        0.59790    0.41040    0.75100    1.000
    H32      H        0.53440    0.32220    0.74730    1.000
    N15      N        0.55200    0.11300    0.73900    1.000
    H33      H        0.58840    0.12330    0.73330    1.000
    H34      H        0.52710    0.21120    0.73450    1.000
    C33      C        0.87540    0.76730    0.88990    1.000
    C34      C        0.94040    0.88440    0.94770    1.000
    C35      C        0.99410    0.81800    0.02640    1.000
    C36      C        0.94830    0.06440    0.92400    1.000
    H35      H        0.91290    0.10770    0.87200    1.000
    C37      C        0.64290    0.77000    0.77550    1.000
    C38      C        0.56900    0.76610    0.76420    1.000
    C39      C        0.53540    0.59850    0.75770    1.000
    C40      C        0.53420    0.93900    0.75520    1.000
    Cd6      Cd       0.26415    0.03050    0.77857    1.000
    O21      O        0.36690    0.10830    0.91160    1.000
    O22      O        0.33090    0.33140    0.81900    1.000
    O23      O        0.18080    0.12720    0.80360    1.000
    O24      O        0.16040    0.41730    0.75580    1.000
    N16      N        0.49290    0.14100    0.05380    1.000
    H36      H        0.52780    0.10360    0.10130    1.000
    H37      H        0.45730    0.06590    0.02350    1.000
    N17      N        0.05900    0.92100    0.75100    1.000
    H38      H        0.09790    0.91040    0.75100    1.000
    H39      H        0.03440    0.82220    0.74730    1.000
    N18      N        0.05200    0.61300    0.73900    1.000
    H40      H        0.08840    0.62330    0.73330    1.000
    H41      H        0.02710    0.71120    0.73450    1.000
    C41      C        0.37540    0.26730    0.88990    1.000
    C42      C        0.44040    0.38440    0.94770    1.000
    C43      C        0.49410    0.31800    0.02640    1.000
    C44      C        0.44830    0.56440    0.92400    1.000
    H42      H        0.41290    0.60770    0.87200    1.000
    C45      C        0.14290    0.27000    0.77550    1.000
    C46      C        0.06900    0.26610    0.76420    1.000
    C47      C        0.03540    0.09850    0.75770    1.000
    C48      C        0.03420    0.43900    0.75520    1.000
    Cd7      Cd       0.23585    0.53050    0.72143    1.000
    O25      O        0.13310    0.60830    0.58840    1.000
    O26      O        0.16910    0.83140    0.68100    1.000
    O27      O        0.31920    0.62720    0.69640    1.000
    O28      O        0.33960    0.91730    0.74420    1.000
    N19      N        0.00710    0.64100    0.44620    1.000
    H43      H        0.97220    0.60360    0.39870    1.000
    H44      H        0.04270    0.56590    0.47650    1.000
    N20      N        0.44100    0.42100    0.74900    1.000
    H45      H        0.40210    0.41040    0.74900    1.000
    H46      H        0.46560    0.32220    0.75270    1.000
    N21      N        0.44800    0.11300    0.76100    1.000
    H47      H        0.41160    0.12330    0.76670    1.000
    H48      H        0.47290    0.21120    0.76550    1.000
    C49      C        0.12460    0.76730    0.61010    1.000
    C50      C        0.05960    0.88440    0.55230    1.000
    C51      C        0.00590    0.81800    0.47360    1.000
    C52      C        0.05170    0.06440    0.57600    1.000
    H49      H        0.08710    0.10770    0.62800    1.000
    C53      C        0.35710    0.77000    0.72450    1.000
    C54      C        0.43100    0.76610    0.73580    1.000
    C55      C        0.46460    0.59850    0.74230    1.000
    C56      C        0.46580    0.93900    0.74480    1.000
    Cd8      Cd       0.73585    0.03050    0.72143    1.000
    O29      O        0.63310    0.10830    0.58840    1.000
    O30      O        0.66910    0.33140    0.68100    1.000
    O31      O        0.81920    0.12720    0.69640    1.000
    O32      O        0.83960    0.41730    0.74420    1.000
    N22      N        0.50710    0.14100    0.44620    1.000
    H50      H        0.47220    0.10360    0.39870    1.000
    H51      H        0.54270    0.06590    0.47650    1.000
    N23      N        0.94100    0.92100    0.74900    1.000
    H52      H        0.90210    0.91040    0.74900    1.000
    H53      H        0.96560    0.82220    0.75270    1.000
    N24      N        0.94800    0.61300    0.76100    1.000
    H54      H        0.91160    0.62330    0.76670    1.000
    H55      H        0.97290    0.71120    0.76550    1.000
    C57      C        0.62460    0.26730    0.61010    1.000
    C58      C        0.55960    0.38440    0.55230    1.000
    C59      C        0.50590    0.31800    0.47360    1.000
    C60      C        0.55170    0.56440    0.57600    1.000
    H56      H        0.58710    0.60770    0.62800    1.000
    C61      C        0.85710    0.27000    0.72450    1.000
    C62      C        0.93100    0.26610    0.73580    1.000
    C63      C        0.96460    0.09850    0.74230    1.000
    C64      C        0.96580    0.43900    0.74480    1.000
