# CIF file generated by openbabel 3.1.0, see https://openbabel.org
data_I
_chemical_name_common 'image0'
_cell_length_a 18.3517
_cell_length_b 18.3517
_cell_length_c 17.772
_cell_angle_alpha 90
_cell_angle_beta 90
_cell_angle_gamma 90
_space_group_name_H-M_alt 'P 1'
_space_group_name_Hall 'P 1'
loop_
    _symmetry_equiv_pos_as_xyz
    x,y,z
loop_
    _atom_site_label
    _atom_site_type_symbol
    _atom_site_fract_x
    _atom_site_fract_y
    _atom_site_fract_z
    _atom_site_occupancy
    O1       O        0.14248    0.22844    0.07969    1.000
    C1       C        0.28636    0.18974    0.21580    1.000
    N1       N        0.34055    0.13892    0.18266    1.000
    O2       O        0.64248    0.72844    0.57969    1.000
    C2       C        0.78636    0.68974    0.71580    1.000
    N2       N        0.84055    0.63892    0.68266    1.000
    O3       O        0.85752    0.77156    0.07969    1.000
    C3       C        0.71364    0.81026    0.21580    1.000
    N3       N        0.65945    0.86108    0.18266    1.000
    O4       O        0.35752    0.27156    0.57969    1.000
    C4       C        0.21364    0.31026    0.71580    1.000
    N4       N        0.15945    0.36108    0.68266    1.000
    O5       O        0.77156    0.14248    0.07969    1.000
    C5       C        0.81026    0.28636    0.21580    1.000
    N5       N        0.86108    0.34055    0.18266    1.000
    O6       O        0.27156    0.64248    0.57969    1.000
    C6       C        0.31026    0.78636    0.71580    1.000
    N6       N        0.36108    0.84055    0.68266    1.000
    O7       O        0.22844    0.85752    0.07969    1.000
    C7       C        0.18974    0.71364    0.21580    1.000
    N7       N        0.13892    0.65945    0.18266    1.000
    O8       O        0.72844    0.35752    0.57969    1.000
    C8       C        0.68974    0.21364    0.71580    1.000
    N8       N        0.63892    0.15945    0.68266    1.000
    O9       O        0.85752    0.22844    0.92031    1.000
    C9       C        0.71364    0.18974    0.78420    1.000
    N9       N        0.65945    0.13892    0.81734    1.000
    O10      O        0.35752    0.72844    0.42031    1.000
    C10      C        0.21364    0.68974    0.28420    1.000
    N10      N        0.15945    0.63892    0.31734    1.000
    O11      O        0.14248    0.77156    0.92031    1.000
    C11      C        0.28636    0.81026    0.78420    1.000
    N11      N        0.34055    0.86108    0.81734    1.000
    O12      O        0.64248    0.27156    0.42031    1.000
    C12      C        0.78636    0.31026    0.28420    1.000
    N12      N        0.84055    0.36108    0.31734    1.000
    O13      O        0.22844    0.14248    0.92031    1.000
    C13      C        0.18974    0.28636    0.78420    1.000
    N13      N        0.13892    0.34055    0.81734    1.000
    O14      O        0.72844    0.64248    0.42031    1.000
    C14      C        0.68974    0.78636    0.28420    1.000
    N14      N        0.63892    0.84055    0.31734    1.000
    O15      O        0.77156    0.85752    0.92031    1.000
    C15      C        0.81026    0.71364    0.78420    1.000
    N15      N        0.86108    0.65945    0.81734    1.000
    O16      O        0.27156    0.35752    0.42031    1.000
    C16      C        0.31026    0.21364    0.28420    1.000
    N16      N        0.36108    0.15945    0.31734    1.000
    O17      O        0.85752    0.77156    0.92031    1.000
    C17      C        0.71364    0.81026    0.78420    1.000
    N17      N        0.65945    0.86108    0.81734    1.000
    O18      O        0.35752    0.27156    0.42031    1.000
    C18      C        0.21364    0.31026    0.28420    1.000
    N18      N        0.15945    0.36108    0.31734    1.000
    O19      O        0.14248    0.22844    0.92031    1.000
    C19      C        0.28636    0.18974    0.78420    1.000
    N19      N        0.34055    0.13892    0.81734    1.000
    O20      O        0.64248    0.72844    0.42031    1.000
    C20      C        0.78636    0.68974    0.28420    1.000
    N20      N        0.84055    0.63892    0.31734    1.000
    O21      O        0.22844    0.85752    0.92031    1.000
    C21      C        0.18974    0.71364    0.78420    1.000
    N21      N        0.13892    0.65945    0.81734    1.000
    O22      O        0.72844    0.35752    0.42031    1.000
    C22      C        0.68974    0.21364    0.28420    1.000
    N22      N        0.63892    0.15945    0.31734    1.000
    O23      O        0.77156    0.14248    0.92031    1.000
    C23      C        0.81026    0.28636    0.78420    1.000
    N23      N        0.86108    0.34055    0.81734    1.000
    O24      O        0.27156    0.64248    0.42031    1.000
    C24      C        0.31026    0.78636    0.28420    1.000
    N24      N        0.36108    0.84055    0.31734    1.000
    O25      O        0.14248    0.77156    0.07969    1.000
    C25      C        0.28636    0.81026    0.21580    1.000
    N25      N        0.34055    0.86108    0.18266    1.000
    O26      O        0.64248    0.27156    0.57969    1.000
    C26      C        0.78636    0.31026    0.71580    1.000
    N26      N        0.84055    0.36108    0.68266    1.000
    O27      O        0.85752    0.22844    0.07969    1.000
    C27      C        0.71364    0.18974    0.21580    1.000
    N27      N        0.65945    0.13892    0.18266    1.000
    O28      O        0.35752    0.72844    0.57969    1.000
    C28      C        0.21364    0.68974    0.71580    1.000
    N28      N        0.15945    0.63892    0.68266    1.000
    O29      O        0.77156    0.85752    0.07969    1.000
    C29      C        0.81026    0.71364    0.21580    1.000
    N29      N        0.86108    0.65945    0.18266    1.000
    O30      O        0.27156    0.35752    0.57969    1.000
    C30      C        0.31026    0.21364    0.71580    1.000
    N30      N        0.36108    0.15945    0.68266    1.000
    O31      O        0.22844    0.14248    0.07969    1.000
    C31      C        0.18974    0.28636    0.21580    1.000
    N31      N        0.13892    0.34055    0.18266    1.000
    O32      O        0.72844    0.64248    0.57969    1.000
    C32      C        0.68974    0.78636    0.71580    1.000
    N32      N        0.63892    0.84055    0.68266    1.000
    Al1      Al       0.07866    0.20660    0.00000    1.000
    O33      O        0.06052    0.31030    0.00000    1.000
    C33      C        0.06769    0.46344    0.00000    1.000
    N33      N        0.14358    0.43184    0.00000    1.000
    Al2      Al       0.57866    0.70660    0.50000    1.000
    O34      O        0.56052    0.81030    0.50000    1.000
    C34      C        0.56769    0.96344    0.50000    1.000
    N34      N        0.64358    0.93184    0.50000    1.000
    Al3      Al       0.92134    0.79340    0.00000    1.000
    O35      O        0.93948    0.68970    0.00000    1.000
    C35      C        0.93231    0.53656    0.00000    1.000
    N35      N        0.85642    0.56816    0.00000    1.000
    Al4      Al       0.42134    0.29340    0.50000    1.000
    O36      O        0.43948    0.18970    0.50000    1.000
    C36      C        0.43231    0.03656    0.50000    1.000
    N36      N        0.35642    0.06816    0.50000    1.000
    Al5      Al       0.79340    0.07866    0.00000    1.000
    O37      O        0.68970    0.06052    0.00000    1.000
    C37      C        0.53656    0.06769    0.00000    1.000
    N37      N        0.56816    0.14358    0.00000    1.000
    Al6      Al       0.29340    0.57866    0.50000    1.000
    O38      O        0.18970    0.56052    0.50000    1.000
    C38      C        0.03656    0.56769    0.50000    1.000
    N38      N        0.06816    0.64358    0.50000    1.000
    Al7      Al       0.20660    0.92134    0.00000    1.000
    O39      O        0.31030    0.93948    0.00000    1.000
    C39      C        0.46344    0.93231    0.00000    1.000
    N39      N        0.43184    0.85642    0.00000    1.000
    Al8      Al       0.70660    0.42134    0.50000    1.000
    O40      O        0.81030    0.43948    0.50000    1.000
    C40      C        0.96344    0.43231    0.50000    1.000
    N40      N        0.93184    0.35642    0.50000    1.000
    Al9      Al       0.92134    0.20660    0.00000    1.000
    O41      O        0.93948    0.31030    0.00000    1.000
    C41      C        0.93231    0.46344    0.00000    1.000
    N41      N        0.85642    0.43184    0.00000    1.000
    Al10     Al       0.42134    0.70660    0.50000    1.000
    O42      O        0.43948    0.81030    0.50000    1.000
    C42      C        0.43231    0.96344    0.50000    1.000
    N42      N        0.35642    0.93184    0.50000    1.000
    Al11     Al       0.07866    0.79340    0.00000    1.000
    O43      O        0.06052    0.68970    0.00000    1.000
    C43      C        0.06769    0.53656    0.00000    1.000
    N43      N        0.14358    0.56816    0.00000    1.000
    Al12     Al       0.57866    0.29340    0.50000    1.000
    O44      O        0.56052    0.18970    0.50000    1.000
    C44      C        0.56769    0.03656    0.50000    1.000
    N44      N        0.64358    0.06816    0.50000    1.000
    Al13     Al       0.20660    0.07866    0.00000    1.000
    O45      O        0.31030    0.06052    0.00000    1.000
    C45      C        0.46344    0.06769    0.00000    1.000
    N45      N        0.43184    0.14358    0.00000    1.000
    Al14     Al       0.70660    0.57866    0.50000    1.000
    O46      O        0.81030    0.56052    0.50000    1.000
    C46      C        0.96344    0.56769    0.50000    1.000
    N46      N        0.93184    0.64358    0.50000    1.000
    Al15     Al       0.79340    0.92134    0.00000    1.000
    O47      O        0.68970    0.93948    0.00000    1.000
    C47      C        0.53656    0.93231    0.00000    1.000
    N47      N        0.56816    0.85642    0.00000    1.000
    Al16     Al       0.29340    0.42134    0.50000    1.000
    O48      O        0.18970    0.43948    0.50000    1.000
    C48      C        0.03656    0.43231    0.50000    1.000
    N48      N        0.06816    0.35642    0.50000    1.000
    O49      O        0.11024    0.11024    0.00000    1.000
    O50      O        0.61024    0.61024    0.50000    1.000
    O51      O        0.88976    0.88976    0.00000    1.000
    O52      O        0.38976    0.38976    0.50000    1.000
    O53      O        0.88976    0.11024    0.00000    1.000
    O54      O        0.38976    0.61024    0.50000    1.000
    O55      O        0.11024    0.88976    0.00000    1.000
    O56      O        0.61024    0.38976    0.50000    1.000
    O57      O        0.00000    0.19291    0.06616    1.000
    C49      C        0.00000    0.18470    0.14796    1.000
    O58      O        0.50000    0.69291    0.56616    1.000
    C50      C        0.50000    0.68470    0.64796    1.000
    O59      O        0.00000    0.80709    0.06616    1.000
    C51      C        0.00000    0.81530    0.14796    1.000
    O60      O        0.50000    0.30709    0.56616    1.000
    C52      C        0.50000    0.31530    0.64796    1.000
    O61      O        0.80709    0.00000    0.06616    1.000
    C53      C        0.81530    0.00000    0.14796    1.000
    O62      O        0.30709    0.50000    0.56616    1.000
    C54      C        0.31530    0.50000    0.64796    1.000
    O63      O        0.19291    0.00000    0.06616    1.000
    C55      C        0.18470    0.00000    0.14796    1.000
    O64      O        0.69291    0.50000    0.56616    1.000
    C56      C        0.68470    0.50000    0.64796    1.000
    O65      O        0.00000    0.19291    0.93384    1.000
    C57      C        0.00000    0.18470    0.85204    1.000
    O66      O        0.50000    0.69291    0.43384    1.000
    C58      C        0.50000    0.68470    0.35204    1.000
    O67      O        0.00000    0.80709    0.93384    1.000
    C59      C        0.00000    0.81530    0.85204    1.000
    O68      O        0.50000    0.30709    0.43384    1.000
    C60      C        0.50000    0.31530    0.35204    1.000
    O69      O        0.19291    0.00000    0.93384    1.000
    C61      C        0.18470    0.00000    0.85204    1.000
    O70      O        0.69291    0.50000    0.43384    1.000
    C62      C        0.68470    0.50000    0.35204    1.000
    O71      O        0.80709    0.00000    0.93384    1.000
    C63      C        0.81530    0.00000    0.85204    1.000
    O72      O        0.30709    0.50000    0.43384    1.000
    C64      C        0.31530    0.50000    0.35204    1.000
    C65      C        0.00000    0.34196    0.00000    1.000
    C66      C        0.00000    0.42527    0.00000    1.000
    C67      C        0.50000    0.84196    0.50000    1.000
    C68      C        0.50000    0.92527    0.50000    1.000
    C69      C        0.00000    0.65804    0.00000    1.000
    C70      C        0.00000    0.57473    0.00000    1.000
    C71      C        0.50000    0.15804    0.50000    1.000
    C72      C        0.50000    0.07473    0.50000    1.000
    C73      C        0.65804    0.00000    0.00000    1.000
    C74      C        0.57473    0.00000    0.00000    1.000
    C75      C        0.15804    0.50000    0.50000    1.000
    C76      C        0.07473    0.50000    0.50000    1.000
    C77      C        0.34196    0.00000    0.00000    1.000
    C78      C        0.42527    0.00000    0.00000    1.000
    C79      C        0.84196    0.50000    0.50000    1.000
    C80      C        0.92527    0.50000    0.50000    1.000
    C81      C        0.19687    0.19687    0.10774    1.000
    C82      C        0.22431    0.22431    0.18267    1.000
    C83      C        0.69687    0.69687    0.60774    1.000
    C84      C        0.72431    0.72431    0.68267    1.000
    C85      C        0.80313    0.80313    0.10774    1.000
    C86      C        0.77569    0.77569    0.18267    1.000
    C87      C        0.30313    0.30313    0.60774    1.000
    C88      C        0.27569    0.27569    0.68267    1.000
    C89      C        0.80313    0.19687    0.10774    1.000
    C90      C        0.77569    0.22431    0.18267    1.000
    C91      C        0.30313    0.69687    0.60774    1.000
    C92      C        0.27569    0.72431    0.68267    1.000
    C93      C        0.19687    0.80313    0.10774    1.000
    C94      C        0.22431    0.77569    0.18267    1.000
    C95      C        0.69687    0.30313    0.60774    1.000
    C96      C        0.72431    0.27569    0.68267    1.000
    C97      C        0.80313    0.19687    0.89226    1.000
    C98      C        0.77569    0.22431    0.81733    1.000
    C99      C        0.30313    0.69687    0.39226    1.000
    C100     C        0.27569    0.72431    0.31733    1.000
    C101     C        0.19687    0.80313    0.89226    1.000
    C102     C        0.22431    0.77569    0.81733    1.000
    C103     C        0.69687    0.30313    0.39226    1.000
    C104     C        0.72431    0.27569    0.31733    1.000
    C105     C        0.19687    0.19687    0.89226    1.000
    C106     C        0.22431    0.22431    0.81733    1.000
    C107     C        0.69687    0.69687    0.39226    1.000
    C108     C        0.72431    0.72431    0.31733    1.000
    C109     C        0.80313    0.80313    0.89226    1.000
    C110     C        0.77569    0.77569    0.81733    1.000
    C111     C        0.30313    0.30313    0.39226    1.000
    C112     C        0.27569    0.27569    0.31733    1.000
