# CIF file generated by openbabel 3.1.0, see https://openbabel.org
data_I
_chemical_name_common 'image0'
_cell_length_a 23.8212
_cell_length_b 23.8212
_cell_length_c 30.2938
_cell_angle_alpha 90
_cell_angle_beta 90
_cell_angle_gamma 120
_space_group_name_H-M_alt 'P 1'
_space_group_name_Hall 'P 1'
loop_
    _symmetry_equiv_pos_as_xyz
    x,y,z
loop_
    _atom_site_label
    _atom_site_type_symbol
    _atom_site_fract_x
    _atom_site_fract_y
    _atom_site_fract_z
    _atom_site_occupancy
    O1       O        0.32200    0.55041    0.86694    1.000
    C1       C        0.24660    0.39210    0.94830    1.000
    C2       C        0.27290    0.44710    0.92180    1.000
    H1       H        0.31620    0.46680    0.91350    1.000
    O2       O        0.98867    0.88374    0.20027    1.000
    C3       C        0.91327    0.72543    0.28163    1.000
    C4       C        0.93957    0.78043    0.25513    1.000
    H2       H        0.98287    0.80013    0.24683    1.000
    O3       O        0.65533    0.21708    0.53361    1.000
    C5       C        0.57993    0.05877    0.61497    1.000
    C6       C        0.60623    0.11377    0.58847    1.000
    H3       H        0.64953    0.13347    0.58017    1.000
    O4       O        0.44959    0.77159    0.86694    1.000
    C7       C        0.60790    0.85450    0.94830    1.000
    C8       C        0.55290    0.82580    0.92180    1.000
    H4       H        0.53320    0.84940    0.91350    1.000
    O5       O        0.11626    0.10492    0.20027    1.000
    C9       C        0.27457    0.18783    0.28163    1.000
    C10      C        0.21957    0.15913    0.25513    1.000
    H5       H        0.19987    0.18273    0.24683    1.000
    O6       O        0.78292    0.43826    0.53361    1.000
    C11      C        0.94123    0.52117    0.61497    1.000
    C12      C        0.88623    0.49247    0.58847    1.000
    H6       H        0.86653    0.51607    0.58017    1.000
    O7       O        0.22841    0.67800    0.86694    1.000
    C13      C        0.14550    0.75340    0.94830    1.000
    C14      C        0.17420    0.72710    0.92180    1.000
    H7       H        0.15060    0.68380    0.91350    1.000
    O8       O        0.89508    0.01133    0.20027    1.000
    C15      C        0.81217    0.08673    0.28163    1.000
    C16      C        0.84087    0.06043    0.25513    1.000
    H8       H        0.81727    0.01713    0.24683    1.000
    O9       O        0.56174    0.34467    0.53361    1.000
    C17      C        0.47883    0.42007    0.61497    1.000
    C18      C        0.50753    0.39377    0.58847    1.000
    H9       H        0.48393    0.35047    0.58017    1.000
    O10      O        0.44959    0.67800    0.86694    1.000
    C19      C        0.60790    0.75340    0.94830    1.000
    C20      C        0.55290    0.72710    0.92180    1.000
    H10      H        0.53320    0.68380    0.91350    1.000
    O11      O        0.11626    0.01133    0.20027    1.000
    C21      C        0.27457    0.08673    0.28163    1.000
    C22      C        0.21957    0.06043    0.25513    1.000
    H11      H        0.19987    0.01713    0.24683    1.000
    O12      O        0.78292    0.34467    0.53361    1.000
    C23      C        0.94123    0.42007    0.61497    1.000
    C24      C        0.88623    0.39377    0.58847    1.000
    H12      H        0.86653    0.35047    0.58017    1.000
    O13      O        0.22841    0.55041    0.86694    1.000
    C25      C        0.14550    0.39210    0.94830    1.000
    C26      C        0.17420    0.44710    0.92180    1.000
    H13      H        0.15060    0.46680    0.91350    1.000
    O14      O        0.89508    0.88374    0.20027    1.000
    C27      C        0.81217    0.72543    0.28163    1.000
    C28      C        0.84087    0.78043    0.25513    1.000
    H14      H        0.81727    0.80013    0.24683    1.000
    O15      O        0.56174    0.21708    0.53361    1.000
    C29      C        0.47883    0.05877    0.61497    1.000
    C30      C        0.50753    0.11377    0.58847    1.000
    H15      H        0.48393    0.13347    0.58017    1.000
    O16      O        0.32200    0.77159    0.86694    1.000
    C31      C        0.24660    0.85450    0.94830    1.000
    C32      C        0.27290    0.82580    0.92180    1.000
    H16      H        0.31620    0.84940    0.91350    1.000
    O17      O        0.98867    0.10492    0.20027    1.000
    C33      C        0.91327    0.18783    0.28163    1.000
    C34      C        0.93957    0.15913    0.25513    1.000
    H17      H        0.98287    0.18273    0.24683    1.000
    O18      O        0.65533    0.43826    0.53361    1.000
    C35      C        0.57993    0.52117    0.61497    1.000
    C36      C        0.60623    0.49247    0.58847    1.000
    H18      H        0.64953    0.51607    0.58017    1.000
    Zn1      Zn       0.00000    0.00000    0.07759    1.000
    O19      O        0.00000    0.00000    0.14164    1.000
    Zn2      Zn       0.66667    0.33333    0.41092    1.000
    O20      O        0.66667    0.33333    0.47497    1.000
    Zn3      Zn       0.33333    0.66667    0.74426    1.000
    O21      O        0.33333    0.66667    0.80831    1.000
    Zn4      Zn       0.04443    0.08887    0.16150    1.000
    O22      O        0.07440    0.14880    0.11320    1.000
    O23      O        0.04310    0.08620    0.05425    1.000
    C37      C        0.06940    0.13880    0.07170    1.000
    C38      C        0.09795    0.19590    0.04540    1.000
    C39      C        0.12875    0.25750    0.06400    1.000
    H19      H        0.13110    0.26220    0.09450    1.000
    C40      C        0.15635    0.31270    0.03690    1.000
    C41      C        0.15250    0.30500    0.98990    1.000
    C42      C        0.12145    0.24290    0.97100    1.000
    C43      C        0.09450    0.18900    0.99950    1.000
    H20      H        0.07380    0.14760    0.98750    1.000
    C44      C        0.18145    0.36290    0.96120    1.000
    C45      C        0.23615    0.47230    0.90790    1.000
    C46      C        0.26640    0.53280    0.87850    1.000
    Zn5      Zn       0.71110    0.42220    0.49483    1.000
    O24      O        0.74107    0.48213    0.44653    1.000
    O25      O        0.70977    0.41953    0.38758    1.000
    C47      C        0.73607    0.47213    0.40503    1.000
    C48      C        0.76462    0.52923    0.37873    1.000
    C49      C        0.79542    0.59083    0.39733    1.000
    H21      H        0.79777    0.59553    0.42783    1.000
    C50      C        0.82302    0.64603    0.37023    1.000
    C51      C        0.81917    0.63833    0.32323    1.000
    C52      C        0.78812    0.57623    0.30433    1.000
    C53      C        0.76117    0.52233    0.33283    1.000
    H22      H        0.74047    0.48093    0.32083    1.000
    C54      C        0.84812    0.69623    0.29453    1.000
    C55      C        0.90282    0.80563    0.24123    1.000
    C56      C        0.93307    0.86613    0.21183    1.000
    Zn6      Zn       0.37777    0.75554    0.82817    1.000
    O26      O        0.40773    0.81547    0.77987    1.000
    O27      O        0.37643    0.75287    0.72092    1.000
    C57      C        0.40273    0.80547    0.73837    1.000
    C58      C        0.43128    0.86257    0.71207    1.000
    C59      C        0.46208    0.92417    0.73067    1.000
    H23      H        0.46443    0.92887    0.76117    1.000
    C60      C        0.48968    0.97937    0.70357    1.000
    C61      C        0.48583    0.97167    0.65657    1.000
    C62      C        0.45478    0.90957    0.63767    1.000
    C63      C        0.42783    0.85567    0.66617    1.000
    H24      H        0.40713    0.81427    0.65417    1.000
    C64      C        0.51478    0.02957    0.62787    1.000
    C65      C        0.56948    0.13897    0.57457    1.000
    C66      C        0.59973    0.19947    0.54517    1.000
    Zn7      Zn       0.91113    0.95557    0.16150    1.000
    O28      O        0.85120    0.92560    0.11320    1.000
    O29      O        0.91380    0.95690    0.05425    1.000
    C67      C        0.86120    0.93060    0.07170    1.000
    C68      C        0.80410    0.90205    0.04540    1.000
    C69      C        0.74250    0.87125    0.06400    1.000
    H25      H        0.73780    0.86890    0.09450    1.000
    C70      C        0.68730    0.84365    0.03690    1.000
    C71      C        0.69500    0.84750    0.98990    1.000
    C72      C        0.75710    0.87855    0.97100    1.000
    C73      C        0.81100    0.90550    0.99950    1.000
    H26      H        0.85240    0.92620    0.98750    1.000
    C74      C        0.63710    0.81855    0.96120    1.000
    C75      C        0.52770    0.76385    0.90790    1.000
    C76      C        0.46720    0.73360    0.87850    1.000
    Zn8      Zn       0.57780    0.28890    0.49483    1.000
    O30      O        0.51787    0.25893    0.44653    1.000
    O31      O        0.58047    0.29023    0.38758    1.000
    C77      C        0.52787    0.26393    0.40503    1.000
    C78      C        0.47077    0.23538    0.37873    1.000
    C79      C        0.40917    0.20458    0.39733    1.000
    H27      H        0.40447    0.20223    0.42783    1.000
    C80      C        0.35397    0.17698    0.37023    1.000
    C81      C        0.36167    0.18083    0.32323    1.000
    C82      C        0.42377    0.21188    0.30433    1.000
    C83      C        0.47767    0.23883    0.33283    1.000
    H28      H        0.51907    0.25953    0.32083    1.000
    C84      C        0.30377    0.15188    0.29453    1.000
    C85      C        0.19437    0.09718    0.24123    1.000
    C86      C        0.13387    0.06693    0.21183    1.000
    Zn9      Zn       0.24446    0.62223    0.82817    1.000
    O32      O        0.18453    0.59227    0.77987    1.000
    O33      O        0.24713    0.62357    0.72092    1.000
    C87      C        0.19453    0.59727    0.73837    1.000
    C88      C        0.13743    0.56872    0.71207    1.000
    C89      C        0.07583    0.53792    0.73067    1.000
    H29      H        0.07113    0.53557    0.76117    1.000
    C90      C        0.02063    0.51032    0.70357    1.000
    C91      C        0.02833    0.51417    0.65657    1.000
    C92      C        0.09043    0.54522    0.63767    1.000
    C93      C        0.14433    0.57217    0.66617    1.000
    H30      H        0.18573    0.59287    0.65417    1.000
    C94      C        0.97043    0.48522    0.62787    1.000
    C95      C        0.86103    0.43052    0.57457    1.000
    C96      C        0.80053    0.40027    0.54517    1.000
    Zn10     Zn       0.04444    0.95557    0.16150    1.000
    O34      O        0.07440    0.92560    0.11320    1.000
    O35      O        0.04310    0.95690    0.05425    1.000
    C97      C        0.06940    0.93060    0.07170    1.000
    C98      C        0.09795    0.90205    0.04540    1.000
    C99      C        0.12875    0.87125    0.06400    1.000
    H31      H        0.13110    0.86890    0.09450    1.000
    C100     C        0.15635    0.84365    0.03690    1.000
    C101     C        0.15250    0.84750    0.98990    1.000
    C102     C        0.12145    0.87855    0.97100    1.000
    C103     C        0.09450    0.90550    0.99950    1.000
    H32      H        0.07380    0.92620    0.98750    1.000
    C104     C        0.18145    0.81855    0.96120    1.000
    C105     C        0.23615    0.76385    0.90790    1.000
    C106     C        0.26640    0.73360    0.87850    1.000
    Zn11     Zn       0.71110    0.28890    0.49483    1.000
    O36      O        0.74107    0.25893    0.44653    1.000
    O37      O        0.70977    0.29023    0.38758    1.000
    C107     C        0.73607    0.26393    0.40503    1.000
    C108     C        0.76462    0.23538    0.37873    1.000
    C109     C        0.79542    0.20458    0.39733    1.000
    H33      H        0.79777    0.20223    0.42783    1.000
    C110     C        0.82302    0.17698    0.37023    1.000
    C111     C        0.81917    0.18083    0.32323    1.000
    C112     C        0.78812    0.21188    0.30433    1.000
    C113     C        0.76117    0.23883    0.33283    1.000
    H34      H        0.74047    0.25953    0.32083    1.000
    C114     C        0.84812    0.15188    0.29453    1.000
    C115     C        0.90282    0.09718    0.24123    1.000
    C116     C        0.93307    0.06693    0.21183    1.000
    Zn12     Zn       0.37777    0.62223    0.82817    1.000
    O38      O        0.40773    0.59227    0.77987    1.000
    O39      O        0.37643    0.62357    0.72092    1.000
    C117     C        0.40273    0.59727    0.73837    1.000
    C118     C        0.43128    0.56872    0.71207    1.000
    C119     C        0.46208    0.53792    0.73067    1.000
    H35      H        0.46443    0.53557    0.76117    1.000
    C120     C        0.48968    0.51032    0.70357    1.000
    C121     C        0.48583    0.51417    0.65657    1.000
    C122     C        0.45478    0.54522    0.63767    1.000
    C123     C        0.42783    0.57217    0.66617    1.000
    H36      H        0.40713    0.59287    0.65417    1.000
    C124     C        0.51478    0.48522    0.62787    1.000
    C125     C        0.56948    0.43052    0.57457    1.000
    C126     C        0.59973    0.40027    0.54517    1.000
    O40      O        0.55041    0.32200    0.13306    1.000
    C127     C        0.39210    0.24660    0.05170    1.000
    C128     C        0.44710    0.27290    0.07820    1.000
    H37      H        0.46680    0.31620    0.08650    1.000
    O41      O        0.21708    0.65533    0.46639    1.000
    C129     C        0.05877    0.57993    0.38503    1.000
    C130     C        0.11377    0.60623    0.41153    1.000
    H38      H        0.13347    0.64953    0.41983    1.000
    O42      O        0.88374    0.98867    0.79973    1.000
    C131     C        0.72543    0.91327    0.71837    1.000
    C132     C        0.78043    0.93957    0.74487    1.000
    H39      H        0.80013    0.98287    0.75317    1.000
    O43      O        0.77159    0.44959    0.13306    1.000
    C133     C        0.85450    0.60790    0.05170    1.000
    C134     C        0.82580    0.55290    0.07820    1.000
    H40      H        0.84940    0.53320    0.08650    1.000
    O44      O        0.43826    0.78292    0.46639    1.000
    C135     C        0.52117    0.94123    0.38503    1.000
    C136     C        0.49247    0.88623    0.41153    1.000
    H41      H        0.51607    0.86653    0.41983    1.000
    O45      O        0.10492    0.11626    0.79973    1.000
    C137     C        0.18783    0.27457    0.71837    1.000
    C138     C        0.15913    0.21957    0.74487    1.000
    H42      H        0.18273    0.19987    0.75317    1.000
    O46      O        0.67800    0.22841    0.13306    1.000
    C139     C        0.75340    0.14550    0.05170    1.000
    C140     C        0.72710    0.17420    0.07820    1.000
    H43      H        0.68380    0.15060    0.08650    1.000
    O47      O        0.34467    0.56174    0.46639    1.000
    C141     C        0.42007    0.47883    0.38503    1.000
    C142     C        0.39377    0.50753    0.41153    1.000
    H44      H        0.35047    0.48393    0.41983    1.000
    O48      O        0.01133    0.89508    0.79973    1.000
    C143     C        0.08673    0.81217    0.71837    1.000
    C144     C        0.06043    0.84087    0.74487    1.000
    H45      H        0.01713    0.81727    0.75317    1.000
    O49      O        0.67800    0.44959    0.13306    1.000
    C145     C        0.75340    0.60790    0.05170    1.000
    C146     C        0.72710    0.55290    0.07820    1.000
    H46      H        0.68380    0.53320    0.08650    1.000
    O50      O        0.34467    0.78292    0.46639    1.000
    C147     C        0.42007    0.94123    0.38503    1.000
    C148     C        0.39377    0.88623    0.41153    1.000
    H47      H        0.35047    0.86653    0.41983    1.000
    O51      O        0.01133    0.11626    0.79973    1.000
    C149     C        0.08673    0.27457    0.71837    1.000
    C150     C        0.06043    0.21957    0.74487    1.000
    H48      H        0.01713    0.19987    0.75317    1.000
    O52      O        0.55041    0.22841    0.13306    1.000
    C151     C        0.39210    0.14550    0.05170    1.000
    C152     C        0.44710    0.17420    0.07820    1.000
    H49      H        0.46680    0.15060    0.08650    1.000
    O53      O        0.21708    0.56174    0.46639    1.000
    C153     C        0.05877    0.47883    0.38503    1.000
    C154     C        0.11377    0.50753    0.41153    1.000
    H50      H        0.13347    0.48393    0.41983    1.000
    O54      O        0.88374    0.89508    0.79973    1.000
    C155     C        0.72543    0.81217    0.71837    1.000
    C156     C        0.78043    0.84087    0.74487    1.000
    H51      H        0.80013    0.81727    0.75317    1.000
    O55      O        0.77159    0.32200    0.13306    1.000
    C157     C        0.85450    0.24660    0.05170    1.000
    C158     C        0.82580    0.27290    0.07820    1.000
    H52      H        0.84940    0.31620    0.08650    1.000
    O56      O        0.43826    0.65533    0.46639    1.000
    C159     C        0.52117    0.57993    0.38503    1.000
    C160     C        0.49247    0.60623    0.41153    1.000
    H53      H        0.51607    0.64953    0.41983    1.000
    O57      O        0.10492    0.98867    0.79973    1.000
    C161     C        0.18783    0.91327    0.71837    1.000
    C162     C        0.15913    0.93957    0.74487    1.000
    H54      H        0.18273    0.98287    0.75317    1.000
    Zn13     Zn       0.00000    0.00000    0.92241    1.000
    O58      O        0.00000    0.00000    0.85836    1.000
    Zn14     Zn       0.66667    0.33333    0.25574    1.000
    O59      O        0.66667    0.33333    0.19169    1.000
    Zn15     Zn       0.33333    0.66667    0.58908    1.000
    O60      O        0.33333    0.66667    0.52503    1.000
    Zn16     Zn       0.08887    0.04443    0.83850    1.000
    O61      O        0.14880    0.07440    0.88680    1.000
    O62      O        0.08620    0.04310    0.94575    1.000
    C163     C        0.13880    0.06940    0.92830    1.000
    C164     C        0.19590    0.09795    0.95460    1.000
    C165     C        0.25750    0.12875    0.93600    1.000
    H55      H        0.26220    0.13110    0.90550    1.000
    C166     C        0.31270    0.15635    0.96310    1.000
    C167     C        0.30500    0.15250    0.01010    1.000
    C168     C        0.24290    0.12145    0.02900    1.000
    C169     C        0.18900    0.09450    0.00050    1.000
    H56      H        0.14760    0.07380    0.01250    1.000
    C170     C        0.36290    0.18145    0.03880    1.000
    C171     C        0.47230    0.23615    0.09210    1.000
    C172     C        0.53280    0.26640    0.12150    1.000
    Zn17     Zn       0.75554    0.37777    0.17183    1.000
    O63      O        0.81547    0.40773    0.22013    1.000
    O64      O        0.75287    0.37643    0.27908    1.000
    C173     C        0.80547    0.40273    0.26163    1.000
    C174     C        0.86257    0.43128    0.28793    1.000
    C175     C        0.92417    0.46208    0.26933    1.000
    H57      H        0.92887    0.46443    0.23883    1.000
    C176     C        0.97937    0.48968    0.29643    1.000
    C177     C        0.97167    0.48583    0.34343    1.000
    C178     C        0.90957    0.45478    0.36233    1.000
    C179     C        0.85567    0.42783    0.33383    1.000
    H58      H        0.81427    0.40713    0.34583    1.000
    C180     C        0.02957    0.51478    0.37213    1.000
    C181     C        0.13897    0.56948    0.42543    1.000
    C182     C        0.19947    0.59973    0.45483    1.000
    Zn18     Zn       0.42220    0.71110    0.50517    1.000
    O65      O        0.48213    0.74107    0.55347    1.000
    O66      O        0.41953    0.70977    0.61242    1.000
    C183     C        0.47213    0.73607    0.59497    1.000
    C184     C        0.52923    0.76462    0.62127    1.000
    C185     C        0.59083    0.79542    0.60267    1.000
    H59      H        0.59553    0.79777    0.57217    1.000
    C186     C        0.64603    0.82302    0.62977    1.000
    C187     C        0.63833    0.81917    0.67677    1.000
    C188     C        0.57623    0.78812    0.69567    1.000
    C189     C        0.52233    0.76117    0.66717    1.000
    H60      H        0.48093    0.74047    0.67917    1.000
    C190     C        0.69623    0.84812    0.70547    1.000
    C191     C        0.80563    0.90282    0.75877    1.000
    C192     C        0.86613    0.93307    0.78817    1.000
    Zn19     Zn       0.95556    0.91113    0.83850    1.000
    O67      O        0.92560    0.85120    0.88680    1.000
    O68      O        0.95690    0.91380    0.94575    1.000
    C193     C        0.93060    0.86120    0.92830    1.000
    C194     C        0.90205    0.80410    0.95460    1.000
    C195     C        0.87125    0.74250    0.93600    1.000
    H61      H        0.86890    0.73780    0.90550    1.000
    C196     C        0.84365    0.68730    0.96310    1.000
    C197     C        0.84750    0.69500    0.01010    1.000
    C198     C        0.87855    0.75710    0.02900    1.000
    C199     C        0.90550    0.81100    0.00050    1.000
    H62      H        0.92620    0.85240    0.01250    1.000
    C200     C        0.81855    0.63710    0.03880    1.000
    C201     C        0.76385    0.52770    0.09210    1.000
    C202     C        0.73360    0.46720    0.12150    1.000
    Zn20     Zn       0.62223    0.24446    0.17183    1.000
    O69      O        0.59227    0.18453    0.22013    1.000
    O70      O        0.62357    0.24713    0.27908    1.000
    C203     C        0.59727    0.19453    0.26163    1.000
    C204     C        0.56872    0.13743    0.28793    1.000
    C205     C        0.53792    0.07583    0.26933    1.000
    H63      H        0.53557    0.07113    0.23883    1.000
    C206     C        0.51032    0.02063    0.29643    1.000
    C207     C        0.51417    0.02833    0.34343    1.000
    C208     C        0.54522    0.09043    0.36233    1.000
    C209     C        0.57217    0.14433    0.33383    1.000
    H64      H        0.59287    0.18573    0.34583    1.000
    C210     C        0.48522    0.97043    0.37213    1.000
    C211     C        0.43052    0.86103    0.42543    1.000
    C212     C        0.40027    0.80053    0.45483    1.000
    Zn21     Zn       0.28890    0.57780    0.50517    1.000
    O71      O        0.25893    0.51787    0.55347    1.000
    O72      O        0.29023    0.58047    0.61242    1.000
    C213     C        0.26393    0.52787    0.59497    1.000
    C214     C        0.23538    0.47077    0.62127    1.000
    C215     C        0.20458    0.40917    0.60267    1.000
    H65      H        0.20223    0.40447    0.57217    1.000
    C216     C        0.17698    0.35397    0.62977    1.000
    C217     C        0.18083    0.36167    0.67677    1.000
    C218     C        0.21188    0.42377    0.69567    1.000
    C219     C        0.23883    0.47767    0.66717    1.000
    H66      H        0.25953    0.51907    0.67917    1.000
    C220     C        0.15188    0.30377    0.70547    1.000
    C221     C        0.09718    0.19437    0.75877    1.000
    C222     C        0.06693    0.13387    0.78817    1.000
    Zn22     Zn       0.95556    0.04443    0.83850    1.000
    O73      O        0.92560    0.07440    0.88680    1.000
    O74      O        0.95690    0.04310    0.94575    1.000
    C223     C        0.93060    0.06940    0.92830    1.000
    C224     C        0.90205    0.09795    0.95460    1.000
    C225     C        0.87125    0.12875    0.93600    1.000
    H67      H        0.86890    0.13110    0.90550    1.000
    C226     C        0.84365    0.15635    0.96310    1.000
    C227     C        0.84750    0.15250    0.01010    1.000
    C228     C        0.87855    0.12145    0.02900    1.000
    C229     C        0.90550    0.09450    0.00050    1.000
    H68      H        0.92620    0.07380    0.01250    1.000
    C230     C        0.81855    0.18145    0.03880    1.000
    C231     C        0.76385    0.23615    0.09210    1.000
    C232     C        0.73360    0.26640    0.12150    1.000
    Zn23     Zn       0.62223    0.37777    0.17183    1.000
    O75      O        0.59227    0.40773    0.22013    1.000
    O76      O        0.62357    0.37643    0.27908    1.000
    C233     C        0.59727    0.40273    0.26163    1.000
    C234     C        0.56872    0.43128    0.28793    1.000
    C235     C        0.53792    0.46208    0.26933    1.000
    H69      H        0.53557    0.46443    0.23883    1.000
    C236     C        0.51032    0.48968    0.29643    1.000
    C237     C        0.51417    0.48583    0.34343    1.000
    C238     C        0.54522    0.45478    0.36233    1.000
    C239     C        0.57217    0.42783    0.33383    1.000
    H70      H        0.59287    0.40713    0.34583    1.000
    C240     C        0.48522    0.51478    0.37213    1.000
    C241     C        0.43052    0.56948    0.42543    1.000
    C242     C        0.40027    0.59973    0.45483    1.000
    Zn24     Zn       0.28890    0.71110    0.50517    1.000
    O77      O        0.25893    0.74107    0.55347    1.000
    O78      O        0.29023    0.70977    0.61242    1.000
    C243     C        0.26393    0.73607    0.59497    1.000
    C244     C        0.23538    0.76462    0.62127    1.000
    C245     C        0.20458    0.79542    0.60267    1.000
    H71      H        0.20223    0.79777    0.57217    1.000
    C246     C        0.17698    0.82302    0.62977    1.000
    C247     C        0.18083    0.81917    0.67677    1.000
    C248     C        0.21188    0.78812    0.69567    1.000
    C249     C        0.23883    0.76117    0.66717    1.000
    H72      H        0.25953    0.74047    0.67917    1.000
    C250     C        0.15188    0.84812    0.70547    1.000
    C251     C        0.09718    0.90282    0.75877    1.000
    C252     C        0.06693    0.93307    0.78817    1.000
