# CIF file generated by openbabel 3.1.0, see https://openbabel.org
data_I
_chemical_name_common 'image0'
_cell_length_a 9.8432
_cell_length_b 10.0408
_cell_length_c 18.0453
_cell_angle_alpha 90.135
_cell_angle_beta 93.963
_cell_angle_gamma 113.872
_space_group_name_H-M_alt 'P 1'
_space_group_name_Hall 'P 1'
loop_
    _symmetry_equiv_pos_as_xyz
    x,y,z
loop_
    _atom_site_label
    _atom_site_type_symbol
    _atom_site_fract_x
    _atom_site_fract_y
    _atom_site_fract_z
    _atom_site_occupancy
    Pr1      Pr       0.00715    0.27666    0.99681    1.000
    O1       O        0.93930    0.41200    0.08590    1.000
    O2       O        0.05960    0.93840    0.08190    1.000
    O3       O        0.07290    0.16080    0.10230    1.000
    O4       O        0.80400    0.30920    0.92240    1.000
    O5       O        0.88760    0.59920    0.11630    1.000
    O6       O        0.77040    0.51080    0.95410    1.000
    C1       C        0.07720    0.04240    0.12300    1.000
    C2       C        0.18300    0.01210    0.35650    1.000
    C3       C        0.65800    0.34030    0.70110    1.000
    H1       H        0.67500    0.28870    0.66260    1.000
    C4       C        0.69010    0.40790    0.83100    1.000
    C5       C        0.10390    0.03040    0.20500    1.000
    C6       C        0.38200    0.12700    0.46510    1.000
    C7       C        0.90070    0.48260    0.13240    1.000
    C8       C        0.60800    0.49300    0.81630    1.000
    H2       H        0.59290    0.54670    0.85440    1.000
    C9       C        0.71500    0.33220    0.77350    1.000
    H3       H        0.76970    0.27620    0.78270    1.000
    C10      C        0.06940    0.89460    0.23630    1.000
    H4       H        0.02230    0.80950    0.20720    1.000
    C11      C        0.79100    0.43800    0.32930    1.000
    H5       H        0.75100    0.48170    0.36210    1.000
    C12      C        0.88100    0.26000    0.30120    1.000
    H6       H        0.90490    0.18230    0.31520    1.000
    C13      C        0.87430    0.42900    0.20870    1.000
    C14      C        0.64700    0.25200    0.45890    1.000
    C15      C        0.90700    0.31100    0.23170    1.000
    H7       H        0.94740    0.26730    0.19900    1.000
    C16      C        0.21400    0.14700    0.32420    1.000
    H8       H        0.26070    0.23260    0.35310    1.000
    C17      C        0.81900    0.32000    0.35240    1.000
    C18      C        0.64900    0.35190    0.51570    1.000
    C19      C        0.81900    0.49300    0.26070    1.000
    H9       H        0.80180    0.57530    0.24830    1.000
    C20      C        0.23500    0.00000    0.43610    1.000
    H10      H        0.24800    0.90950    0.44040    1.000
    H11      H        0.15710    0.99450    0.46770    1.000
    C21      C        0.52200    0.44200    0.60590    1.000
    H12      H        0.42180    0.43620    0.60710    1.000
    H13      H        0.58440    0.53960    0.59140    1.000
    C22      C        0.57700    0.42200    0.68560    1.000
    C23      C        0.52200    0.33600    0.54630    1.000
    C24      C        0.24700    0.19500    0.56300    1.000
    H14      H        0.18490    0.09280    0.56320    1.000
    H15      H        0.19330    0.24490    0.53770    1.000
    H16      H        0.27570    0.23290    0.61320    1.000
    C25      C        0.51200    0.14070    0.43440    1.000
    C26      C        0.50900    0.03400    0.37430    1.000
    H17      H        0.41100    0.95670    0.36790    1.000
    H18      H        0.58000    0.99380    0.38840    1.000
    H19      H        0.53350    0.08320    0.32840    1.000
    C27      C        0.10600    0.88800    0.31090    1.000
    H20      H        0.07860    0.79750    0.33180    1.000
    C28      C        0.17500    0.15390    0.24920    1.000
    H21      H        0.19860    0.24450    0.22840    1.000
    C29      C        0.75900    0.40930    0.90820    1.000
    C30      C        0.79100    0.26100    0.42940    1.000
    H22      H        0.87390    0.32260    0.46350    1.000
    H23      H        0.79100    0.16440    0.42930    1.000
    C31      C        0.55000    0.49500    0.74450    1.000
    H24      H        0.49090    0.54680    0.73540    1.000
    C32      C        0.38400    0.21800    0.52360    1.000
    C33      C        0.79900    0.47700    0.53880    1.000
    H25      H        0.78680    0.53600    0.57730    1.000
    H26      H        0.83640    0.53490    0.49660    1.000
    H27      H        0.86900    0.43740    0.55690    1.000
    Pr2      Pr       0.99285    0.72334    0.00319    1.000
    O7       O        0.06070    0.58800    0.91410    1.000
    O8       O        0.94040    0.06160    0.91810    1.000
    O9       O        0.92710    0.83920    0.89770    1.000
    O10      O        0.19600    0.69080    0.07760    1.000
    O11      O        0.11240    0.40080    0.88370    1.000
    O12      O        0.22960    0.48920    0.04590    1.000
    C34      C        0.92280    0.95760    0.87700    1.000
    C35      C        0.81700    0.98790    0.64350    1.000
    C36      C        0.34200    0.65970    0.29890    1.000
    H28      H        0.32500    0.71130    0.33740    1.000
    C37      C        0.30990    0.59210    0.16900    1.000
    C38      C        0.89610    0.96960    0.79500    1.000
    C39      C        0.61800    0.87300    0.53490    1.000
    C40      C        0.09930    0.51740    0.86760    1.000
    C41      C        0.39200    0.50700    0.18370    1.000
    H29      H        0.40710    0.45330    0.14560    1.000
    C42      C        0.28500    0.66780    0.22650    1.000
    H30      H        0.23030    0.72380    0.21730    1.000
    C43      C        0.93060    0.10540    0.76370    1.000
    H31      H        0.97770    0.19050    0.79280    1.000
    C44      C        0.20900    0.56200    0.67070    1.000
    H32      H        0.24900    0.51830    0.63790    1.000
    C45      C        0.11900    0.74000    0.69880    1.000
    H33      H        0.09510    0.81770    0.68480    1.000
    C46      C        0.12570    0.57100    0.79130    1.000
    C47      C        0.35300    0.74800    0.54110    1.000
    C48      C        0.09300    0.68900    0.76830    1.000
    H34      H        0.05260    0.73270    0.80100    1.000
    C49      C        0.78600    0.85300    0.67580    1.000
    H35      H        0.73930    0.76740    0.64690    1.000
    C50      C        0.18100    0.68000    0.64760    1.000
    C51      C        0.35100    0.64810    0.48430    1.000
    C52      C        0.18100    0.50700    0.73930    1.000
    H36      H        0.19820    0.42470    0.75170    1.000
    C53      C        0.76500    0.00000    0.56390    1.000
    H37      H        0.75200    0.09050    0.55960    1.000
    H38      H        0.84290    0.00550    0.53230    1.000
    C54      C        0.47800    0.55800    0.39410    1.000
    H39      H        0.57820    0.56380    0.39290    1.000
    H40      H        0.41560    0.46040    0.40860    1.000
    C55      C        0.42300    0.57800    0.31440    1.000
    C56      C        0.47800    0.66400    0.45370    1.000
    C57      C        0.75300    0.80500    0.43700    1.000
    H41      H        0.81510    0.90720    0.43680    1.000
    H42      H        0.80670    0.75510    0.46230    1.000
    H43      H        0.72430    0.76710    0.38680    1.000
    C58      C        0.48800    0.85930    0.56560    1.000
    C59      C        0.49100    0.96600    0.62570    1.000
    H44      H        0.58900    0.04330    0.63210    1.000
    H45      H        0.42000    0.00620    0.61160    1.000
    H46      H        0.46650    0.91680    0.67160    1.000
    C60      C        0.89400    0.11200    0.68910    1.000
    H47      H        0.92140    0.20250    0.66820    1.000
    C61      C        0.82500    0.84610    0.75080    1.000
    H48      H        0.80140    0.75550    0.77160    1.000
    C62      C        0.24100    0.59070    0.09180    1.000
    C63      C        0.20900    0.73900    0.57060    1.000
    H49      H        0.12610    0.67740    0.53650    1.000
    H50      H        0.20900    0.83560    0.57070    1.000
    C64      C        0.45000    0.50500    0.25550    1.000
    H51      H        0.50910    0.45320    0.26460    1.000
    C65      C        0.61600    0.78200    0.47640    1.000
    C66      C        0.20100    0.52300    0.46120    1.000
    H52      H        0.21320    0.46400    0.42270    1.000
    H53      H        0.16360    0.46510    0.50340    1.000
    H54      H        0.13100    0.56260    0.44310    1.000
