# CIF file generated by openbabel 3.1.0, see https://openbabel.org
data_I
_chemical_name_common 'image0'
_cell_length_a 9.2406
_cell_length_b 9.957
_cell_length_c 13.3017
_cell_angle_alpha 78.394
_cell_angle_beta 73.58
_cell_angle_gamma 81.982
_space_group_name_H-M_alt 'P 1'
_space_group_name_Hall 'P 1'
loop_
    _symmetry_equiv_pos_as_xyz
    x,y,z
loop_
    _atom_site_label
    _atom_site_type_symbol
    _atom_site_fract_x
    _atom_site_fract_y
    _atom_site_fract_z
    _atom_site_occupancy
    N1       N        0.26480    0.04320    0.09029    1.000
    N2       N        0.06420    0.11950    0.20681    1.000
    N3       N        0.57250    0.14840    0.06577    1.000
    N4       N        0.63290    0.34840    0.07925    1.000
    N5       N        0.46050    0.14950    0.86494    1.000
    N6       N        0.47770    0.22230    0.69444    1.000
    C1       C        0.13770    0.98950    0.08460    1.000
    H1       H        0.13690    0.93030    0.03890    1.000
    C2       C        0.01430    0.03660    0.15610    1.000
    H2       H        0.91500    0.01620    0.16820    1.000
    C3       C        0.21500    0.12090    0.16459    1.000
    H3       H        0.27640    0.17060    0.18530    1.000
    C4       C        0.97750    0.17790    0.30100    1.000
    H4       H        0.87170    0.19410    0.30050    1.000
    H5       H        0.01360    0.26590    0.29810    1.000
    C5       C        0.99090    0.08400    0.40340    1.000
    C6       C        0.00170    0.94140    0.41400    1.000
    H6       H        0.00290    0.90120    0.35640    1.000
    C7       C        0.98930    0.14160    0.49030    1.000
    H7       H        0.98210    0.23680    0.48450    1.000
    C8       C        0.58010    0.14530    0.16800    1.000
    H8       H        0.56270    0.06980    0.22250    1.000
    C9       C        0.61660    0.26820    0.17750    1.000
    H9       H        0.62820    0.29310    0.23830    1.000
    C10      C        0.60600    0.27300    0.01480    1.000
    H10      H        0.61040    0.30430    0.94340    1.000
    C11      C        0.67560    0.49080    0.04850    1.000
    H11      H        0.62570    0.54120    0.10600    1.000
    H12      H        0.64070    0.53500    0.98660    1.000
    C12      C        0.84420    0.49690    0.02340    1.000
    C13      C        0.91270    0.49320    0.10430    1.000
    H13      H        0.85450    0.48890    0.17430    1.000
    C14      C        0.93120    0.50390    0.91960    1.000
    H14      H        0.88500    0.50670    0.86540    1.000
    C15      C        0.31870    0.19450    0.85050    1.000
    H15      H        0.22950    0.19460    0.90480    1.000
    C16      C        0.32770    0.23830    0.74630    1.000
    H16      H        0.24800    0.27250    0.71590    1.000
    C17      C        0.55370    0.16960    0.76819    1.000
    H17      H        0.65820    0.14980    0.75320    1.000
    C18      C        0.54160    0.24110    0.57780    1.000
    H18      H        0.64850    0.25420    0.56050    1.000
    H19      H        0.49110    0.32260    0.54440    1.000
    C19      C        0.52150    0.11730    0.53581    1.000
    C20      C        0.40780    0.12010    0.48560    1.000
    H20      H        0.34550    0.20060    0.47520    1.000
    C21      C        0.61340    0.99590    0.54890    1.000
    H21      H        0.69080    0.99250    0.58170    1.000
    N7       N        0.73520    0.95680    0.90971    1.000
    N8       N        0.93580    0.88050    0.79319    1.000
    N9       N        0.42750    0.85160    0.93423    1.000
    N10      N        0.36710    0.65160    0.92075    1.000
    N11      N        0.53950    0.85050    0.13506    1.000
    N12      N        0.52230    0.77770    0.30556    1.000
    C22      C        0.86230    0.01050    0.91540    1.000
    H22      H        0.86310    0.06970    0.96110    1.000
    C23      C        0.98570    0.96340    0.84390    1.000
    H23      H        0.08500    0.98380    0.83180    1.000
    C24      C        0.78500    0.87910    0.83541    1.000
    H24      H        0.72360    0.82940    0.81470    1.000
    C25      C        0.02250    0.82210    0.69900    1.000
    H25      H        0.12830    0.80590    0.69950    1.000
    H26      H        0.98640    0.73410    0.70190    1.000
    C26      C        0.00910    0.91600    0.59660    1.000
    C27      C        0.99830    0.05860    0.58600    1.000
    H27      H        0.99710    0.09880    0.64360    1.000
    C28      C        0.01070    0.85840    0.50970    1.000
    H28      H        0.01790    0.76320    0.51550    1.000
    C29      C        0.41990    0.85470    0.83200    1.000
    H29      H        0.43730    0.93020    0.77750    1.000
    C30      C        0.38340    0.73180    0.82250    1.000
    H30      H        0.37180    0.70690    0.76170    1.000
    C31      C        0.39400    0.72700    0.98520    1.000
    H31      H        0.38960    0.69570    0.05660    1.000
    C32      C        0.32440    0.50920    0.95150    1.000
    H32      H        0.37430    0.45880    0.89400    1.000
    H33      H        0.35930    0.46500    0.01340    1.000
    C33      C        0.15580    0.50310    0.97660    1.000
    C34      C        0.08730    0.50680    0.89570    1.000
    H34      H        0.14550    0.51110    0.82570    1.000
    C35      C        0.06880    0.49610    0.08040    1.000
    H35      H        0.11500    0.49330    0.13460    1.000
    C36      C        0.68130    0.80550    0.14950    1.000
    H36      H        0.77050    0.80540    0.09520    1.000
    C37      C        0.67230    0.76170    0.25370    1.000
    H37      H        0.75200    0.72750    0.28410    1.000
    C38      C        0.44630    0.83040    0.23181    1.000
    H38      H        0.34180    0.85020    0.24680    1.000
    C39      C        0.45840    0.75890    0.42220    1.000
    H39      H        0.35150    0.74580    0.43950    1.000
    H40      H        0.50890    0.67740    0.45560    1.000
    C40      C        0.47850    0.88270    0.46419    1.000
    C41      C        0.59220    0.87990    0.51440    1.000
    H41      H        0.65450    0.79940    0.52480    1.000
    C42      C        0.38660    0.00410    0.45110    1.000
    H42      H        0.30920    0.00750    0.41830    1.000
    Co1      Co       0.50000    0.00000    0.00000    1.000
