# CIF file generated by openbabel 3.1.0, see https://openbabel.org
data_I
_chemical_name_common 'DEHBIC_clean'
_cell_length_a 6.026
_cell_length_b 7.45
_cell_length_c 13.287
_cell_angle_alpha 102.74
_cell_angle_beta 101.46
_cell_angle_gamma 90.72
_space_group_name_H-M_alt 'P 1'
_space_group_name_Hall 'P 1'
loop_
    _symmetry_equiv_pos_as_xyz
    x,y,z
loop_
    _atom_site_label
    _atom_site_type_symbol
    _atom_site_fract_x
    _atom_site_fract_y
    _atom_site_fract_z
    _atom_site_occupancy
    Gd1      Gd       0.50009    0.50994    0.50002    1.000
    Gd2      Gd       0.46433    0.87269    0.14001    1.000
    H1       H        0.83620    0.79390    0.86320    1.000
    H2       H        0.12680    0.72720    0.76350    1.000
    H3       H        0.99640    0.37410    0.25560    1.000
    H4       H        0.01440    0.41430    0.09090    1.000
    H5       H        0.92720    0.09180    0.55020    1.000
    H6       H        0.96190    0.93890    0.38470    1.000
    H7       H        0.78740    0.61910    0.95170    1.000
    H8       H        0.24780    0.46900    0.74190    1.000
    H9       H        0.28400    0.66000    0.33300    1.000
    H10      H        0.32000    0.46500    0.07300    1.000
    H11      H        0.59000    0.16500    0.56100    1.000
    H12      H        0.70000    0.16800    0.31700    1.000
    C1       C        0.70800    0.61200    0.72340    1.000
    C2       C        0.86250    0.66630    0.83130    1.000
    C3       C        0.11040    0.65960    0.81730    1.000
    C4       C        0.26840    0.75540    0.92110    1.000
    C5       C        0.32510    0.30260    0.24940    1.000
    C6       C        0.13680    0.43940    0.25320    1.000
    C7       C        0.10010    0.51030    0.14880    1.000
    C8       C        0.97110    0.68820    0.15640    1.000
    C9       C        0.98790    0.31770    0.49050    1.000
    C10      C        0.85020    0.14600    0.49270    1.000
    C11      C        0.82010    0.00130    0.38660    1.000
    C12      C        0.63420    0.85960    0.38690    1.000
    O1       O        0.55980    0.47740    0.69850    1.000
    O2       O        0.73130    0.70890    0.66030    1.000
    O3       O        0.83240    0.55630    0.90160    1.000
    O4       O        0.15660    0.47410    0.78060    1.000
    O5       O        0.43700    0.67390    0.95980    1.000
    O6       O        0.22590    0.91000    0.96880    1.000
    O7       O        0.30010    0.16560    0.17470    1.000
    O8       O        0.49330    0.34150    0.32680    1.000
    O9       O        0.19650    0.58630    0.34610    1.000
    O10      O        0.31540    0.54640    0.12630    1.000
    O11      O        0.07780    0.82990    0.15030    1.000
    O12      O        0.76630    0.67710    0.16210    1.000
    O13      O        0.88940    0.46130    0.49260    1.000
    O14      O        0.19420    0.29880    0.48910    1.000
    O15      O        0.63210    0.20260    0.51160    1.000
    O16      O        0.76320    0.07270    0.29600    1.000
    O17      O        0.46140    0.83390    0.31230    1.000
    O18      O        0.66330    0.77220    0.46110    1.000
