# CIF file generated by openbabel 3.1.0, see https://openbabel.org
data_I
_chemical_name_common 'image0'
_cell_length_a 11.5837
_cell_length_b 14.7422
_cell_length_c 11.6194
_cell_angle_alpha 90
_cell_angle_beta 102.319
_cell_angle_gamma 90
_space_group_name_H-M_alt 'P 1'
_space_group_name_Hall 'P 1'
loop_
    _symmetry_equiv_pos_as_xyz
    x,y,z
loop_
    _atom_site_label
    _atom_site_type_symbol
    _atom_site_fract_x
    _atom_site_fract_y
    _atom_site_fract_z
    _atom_site_occupancy
    Zn1      Zn       0.99244    0.03205    0.74933    1.000
    O1       O        0.77412    0.00999    0.48566    1.000
    O2       O        0.86493    0.95349    0.66118    1.000
    O3       O        0.82222    0.83402    0.22180    1.000
    O4       O        0.93251    0.91245    0.36848    1.000
    O5       O        0.58823    0.56702    0.33444    1.000
    O6       O        0.73029    0.50644    0.47455    1.000
    O7       O        0.57525    0.58652    0.62525    1.000
    O8       O        0.63964    0.69345    0.75696    1.000
    C1       C        0.77315    0.84956    0.51788    1.000
    C2       C        0.79071    0.80944    0.41383    1.000
    C3       C        0.75550    0.71960    0.38914    1.000
    H1       H        0.76700    0.69340    0.31960    1.000
    C4       C        0.70378    0.66795    0.46506    1.000
    C5       C        0.68644    0.70812    0.56935    1.000
    C6       C        0.72034    0.79819    0.59319    1.000
    H2       H        0.70720    0.82490    0.66180    1.000
    C7       C        0.80726    0.94650    0.55370    1.000
    C8       C        0.85216    0.85535    0.32751    1.000
    C9       C        0.67158    0.57102    0.42589    1.000
    C10      C        0.63045    0.65974    0.65769    1.000
    Zn2      Zn       0.50756    0.53205    0.75067    1.000
    O9       O        0.72588    0.50999    0.01434    1.000
    O10      O        0.63507    0.45349    0.83882    1.000
    O11      O        0.67778    0.33402    0.27820    1.000
    O12      O        0.56749    0.41245    0.13152    1.000
    O13      O        0.91177    0.06702    0.16556    1.000
    O14      O        0.76971    0.00644    0.02545    1.000
    O15      O        0.92475    0.08652    0.87475    1.000
    O16      O        0.86036    0.19345    0.74304    1.000
    C11      C        0.72685    0.34956    0.98212    1.000
    C12      C        0.70929    0.30944    0.08617    1.000
    C13      C        0.74450    0.21960    0.11086    1.000
    H3       H        0.73300    0.19340    0.18040    1.000
    C14      C        0.79622    0.16795    0.03494    1.000
    C15      C        0.81356    0.20812    0.93065    1.000
    C16      C        0.77966    0.29819    0.90681    1.000
    H4       H        0.79280    0.32490    0.83820    1.000
    C17      C        0.69274    0.44650    0.94630    1.000
    C18      C        0.64784    0.35535    0.17249    1.000
    C19      C        0.82842    0.07102    0.07411    1.000
    C20      C        0.86955    0.15974    0.84231    1.000
    Zn3      Zn       0.00756    0.96795    0.25067    1.000
    O17      O        0.22588    0.99001    0.51434    1.000
    O18      O        0.13507    0.04651    0.33882    1.000
    O19      O        0.17778    0.16598    0.77820    1.000
    O20      O        0.06749    0.08755    0.63152    1.000
    O21      O        0.41177    0.43298    0.66556    1.000
    O22      O        0.26971    0.49356    0.52545    1.000
    O23      O        0.42475    0.41348    0.37475    1.000
    O24      O        0.36036    0.30655    0.24304    1.000
    C21      C        0.22685    0.15044    0.48212    1.000
    C22      C        0.20929    0.19056    0.58617    1.000
    C23      C        0.24450    0.28040    0.61086    1.000
    H5       H        0.23300    0.30660    0.68040    1.000
    C24      C        0.29622    0.33205    0.53494    1.000
    C25      C        0.31356    0.29188    0.43065    1.000
    C26      C        0.27966    0.20181    0.40681    1.000
    H6       H        0.29280    0.17510    0.33820    1.000
    C27      C        0.19274    0.05350    0.44630    1.000
    C28      C        0.14784    0.14465    0.67249    1.000
    C29      C        0.32842    0.42898    0.57411    1.000
    C30      C        0.36955    0.34026    0.34231    1.000
    Zn4      Zn       0.49244    0.46795    0.24933    1.000
    O25      O        0.27412    0.49001    0.98566    1.000
    O26      O        0.36493    0.54651    0.16118    1.000
    O27      O        0.32222    0.66598    0.72180    1.000
    O28      O        0.43251    0.58755    0.86848    1.000
    O29      O        0.08823    0.93298    0.83444    1.000
    O30      O        0.23029    0.99356    0.97455    1.000
    O31      O        0.07525    0.91348    0.12525    1.000
    O32      O        0.13964    0.80655    0.25696    1.000
    C31      C        0.27315    0.65044    0.01788    1.000
    C32      C        0.29071    0.69056    0.91383    1.000
    C33      C        0.25550    0.78040    0.88914    1.000
    H7       H        0.26700    0.80660    0.81960    1.000
    C34      C        0.20378    0.83205    0.96506    1.000
    C35      C        0.18644    0.79188    0.06935    1.000
    C36      C        0.22034    0.70181    0.09319    1.000
    H8       H        0.20720    0.67510    0.16180    1.000
    C37      C        0.30726    0.55350    0.05370    1.000
    C38      C        0.35216    0.64465    0.82751    1.000
    C39      C        0.17158    0.92898    0.92589    1.000
    C40      C        0.13045    0.84026    0.15769    1.000
