# CIF file generated by openbabel 3.1.0, see https://openbabel.org
data_I
_chemical_name_common 'image0'
_cell_length_a 20.438
_cell_length_b 9.502
_cell_length_c 22.808
_cell_angle_alpha 90
_cell_angle_beta 90.136
_cell_angle_gamma 90
_space_group_name_H-M_alt 'P 1'
_space_group_name_Hall 'P 1'
loop_
    _symmetry_equiv_pos_as_xyz
    x,y,z
loop_
    _atom_site_label
    _atom_site_type_symbol
    _atom_site_fract_x
    _atom_site_fract_y
    _atom_site_fract_z
    _atom_site_occupancy
    Zn1      Zn       0.10462    0.96359    0.02827    1.000
    Zn2      Zn       0.15585    0.25422    0.87771    1.000
    Zn3      Zn       0.21988    0.72571    0.82414    1.000
    P1       P        0.02682    0.14430    0.93023    1.000
    P2       P        0.12984    0.93010    0.89689    1.000
    P3       P        0.23256    0.03430    0.10403    1.000
    P4       P        0.29115    0.08010    0.22647    1.000
    O1       O        0.04990    0.11470    0.99310    1.000
    O2       O        0.95340    0.16320    0.92760    1.000
    O3       O        0.06260    0.26970    0.90260    1.000
    O4       O        0.00230    0.87500    0.89850    1.000
    H1       H        0.98820    0.88430    0.93190    1.000
    O5       O        0.17450    0.05700    0.89150    1.000
    O6       O        0.14230    0.82100    0.85090    1.000
    O7       O        0.13240    0.86530    0.95800    1.000
    O8       O        0.17280    0.06560    0.06750    1.000
    O9       O        0.29210    0.10810    0.07720    1.000
    O10      O        0.24260    0.87770    0.11240    1.000
    O11      O        0.35070    0.14570    0.19710    1.000
    O12      O        0.27870    0.14700    0.28630    1.000
    O13      O        0.29840    0.92090    0.23400    1.000
    O14      O        0.22340    0.26470    0.16390    1.000
    H2       H        0.21700    0.30910    0.19420    1.000
    C1       C        0.04530    0.98930    0.88520    1.000
    C2       C        0.03410    0.02740    0.81980    1.000
    H3       H        0.04360    0.94710    0.79580    1.000
    H4       H        0.06230    0.10390    0.80910    1.000
    H5       H        0.98930    0.05490    0.81410    1.000
    C3       C        0.22210    0.11750    0.17630    1.000
    C4       C        0.15580    0.07160    0.20320    1.000
    H6       H        0.15060    0.11470    0.24100    1.000
    H7       H        0.15500    0.97110    0.20740    1.000
    H8       H        0.12070    0.10070    0.17790    1.000
    Zn4      Zn       0.60462    0.46359    0.02827    1.000
    Zn5      Zn       0.65585    0.75422    0.87771    1.000
    Zn6      Zn       0.71988    0.22571    0.82414    1.000
    P5       P        0.52682    0.64430    0.93023    1.000
    P6       P        0.62984    0.43010    0.89689    1.000
    P7       P        0.73256    0.53430    0.10403    1.000
    P8       P        0.79115    0.58010    0.22647    1.000
    O15      O        0.54990    0.61470    0.99310    1.000
    O16      O        0.45340    0.66320    0.92760    1.000
    O17      O        0.56260    0.76970    0.90260    1.000
    O18      O        0.50230    0.37500    0.89850    1.000
    H9       H        0.48820    0.38430    0.93190    1.000
    O19      O        0.67450    0.55700    0.89150    1.000
    O20      O        0.64230    0.32100    0.85090    1.000
    O21      O        0.63240    0.36530    0.95800    1.000
    O22      O        0.67280    0.56560    0.06750    1.000
    O23      O        0.79210    0.60810    0.07720    1.000
    O24      O        0.74260    0.37770    0.11240    1.000
    O25      O        0.85070    0.64570    0.19710    1.000
    O26      O        0.77870    0.64700    0.28630    1.000
    O27      O        0.79840    0.42090    0.23400    1.000
    O28      O        0.72340    0.76470    0.16390    1.000
    H10      H        0.71700    0.80910    0.19420    1.000
    C5       C        0.54530    0.48930    0.88520    1.000
    C6       C        0.53410    0.52740    0.81980    1.000
    H11      H        0.54360    0.44710    0.79580    1.000
    H12      H        0.56230    0.60390    0.80910    1.000
    H13      H        0.48930    0.55490    0.81410    1.000
    C7       C        0.72210    0.61750    0.17630    1.000
    C8       C        0.65580    0.57160    0.20320    1.000
    H14      H        0.65060    0.61470    0.24100    1.000
    H15      H        0.65500    0.47110    0.20740    1.000
    H16      H        0.62070    0.60070    0.17790    1.000
    Zn7      Zn       0.89538    0.96359    0.47173    1.000
    Zn8      Zn       0.84415    0.25422    0.62229    1.000
    Zn9      Zn       0.78012    0.72571    0.67586    1.000
    P9       P        0.97318    0.14430    0.56977    1.000
    P10      P        0.87016    0.93010    0.60311    1.000
    P11      P        0.76744    0.03430    0.39597    1.000
    P12      P        0.70885    0.08010    0.27353    1.000
    O29      O        0.95010    0.11470    0.50690    1.000
    O30      O        0.04660    0.16320    0.57240    1.000
    O31      O        0.93740    0.26970    0.59740    1.000
    O32      O        0.99770    0.87500    0.60150    1.000
    H17      H        0.01180    0.88430    0.56810    1.000
    O33      O        0.82550    0.05700    0.60850    1.000
    O34      O        0.85770    0.82100    0.64910    1.000
    O35      O        0.86760    0.86530    0.54200    1.000
    O36      O        0.82720    0.06560    0.43250    1.000
    O37      O        0.70790    0.10810    0.42280    1.000
    O38      O        0.75740    0.87770    0.38760    1.000
    O39      O        0.64930    0.14570    0.30290    1.000
    O40      O        0.72130    0.14700    0.21370    1.000
    O41      O        0.70160    0.92090    0.26600    1.000
    O42      O        0.77660    0.26470    0.33610    1.000
    H18      H        0.78300    0.30910    0.30580    1.000
    C9       C        0.95470    0.98930    0.61480    1.000
    C10      C        0.96590    0.02740    0.68020    1.000
    H19      H        0.95640    0.94710    0.70420    1.000
    H20      H        0.93770    0.10390    0.69090    1.000
    H21      H        0.01070    0.05490    0.68590    1.000
    C11      C        0.77790    0.11750    0.32370    1.000
    C12      C        0.84420    0.07160    0.29680    1.000
    H22      H        0.84940    0.11470    0.25900    1.000
    H23      H        0.84500    0.97110    0.29260    1.000
    H24      H        0.87930    0.10070    0.32210    1.000
    Zn10     Zn       0.39538    0.46359    0.47173    1.000
    Zn11     Zn       0.34415    0.75422    0.62229    1.000
    Zn12     Zn       0.28012    0.22571    0.67586    1.000
    P13      P        0.47318    0.64430    0.56977    1.000
    P14      P        0.37016    0.43010    0.60311    1.000
    P15      P        0.26744    0.53430    0.39597    1.000
    P16      P        0.20885    0.58010    0.27353    1.000
    O43      O        0.45010    0.61470    0.50690    1.000
    O44      O        0.54660    0.66320    0.57240    1.000
    O45      O        0.43740    0.76970    0.59740    1.000
    O46      O        0.49770    0.37500    0.60150    1.000
    H25      H        0.51180    0.38430    0.56810    1.000
    O47      O        0.32550    0.55700    0.60850    1.000
    O48      O        0.35770    0.32100    0.64910    1.000
    O49      O        0.36760    0.36530    0.54200    1.000
    O50      O        0.32720    0.56560    0.43250    1.000
    O51      O        0.20790    0.60810    0.42280    1.000
    O52      O        0.25740    0.37770    0.38760    1.000
    O53      O        0.14930    0.64570    0.30290    1.000
    O54      O        0.22130    0.64700    0.21370    1.000
    O55      O        0.20160    0.42090    0.26600    1.000
    O56      O        0.27660    0.76470    0.33610    1.000
    H26      H        0.28300    0.80910    0.30580    1.000
    C13      C        0.45470    0.48930    0.61480    1.000
    C14      C        0.46590    0.52740    0.68020    1.000
    H27      H        0.45640    0.44710    0.70420    1.000
    H28      H        0.43770    0.60390    0.69090    1.000
    H29      H        0.51070    0.55490    0.68590    1.000
    C15      C        0.27790    0.61750    0.32370    1.000
    C16      C        0.34420    0.57160    0.29680    1.000
    H30      H        0.34940    0.61470    0.25900    1.000
    H31      H        0.34500    0.47110    0.29260    1.000
    H32      H        0.37930    0.60070    0.32210    1.000
    Zn13     Zn       0.89538    0.03641    0.97173    1.000
    Zn14     Zn       0.84415    0.74578    0.12229    1.000
    Zn15     Zn       0.78012    0.27429    0.17586    1.000
    P17      P        0.97318    0.85570    0.06977    1.000
    P18      P        0.87016    0.06990    0.10311    1.000
    P19      P        0.76744    0.96570    0.89597    1.000
    P20      P        0.70885    0.91990    0.77353    1.000
    O57      O        0.95010    0.88530    0.00690    1.000
    O58      O        0.04660    0.83680    0.07240    1.000
    O59      O        0.93740    0.73030    0.09740    1.000
    O60      O        0.99770    0.12500    0.10150    1.000
    H33      H        0.01180    0.11570    0.06810    1.000
    O61      O        0.82550    0.94300    0.10850    1.000
    O62      O        0.85770    0.17900    0.14910    1.000
    O63      O        0.86760    0.13470    0.04200    1.000
    O64      O        0.82720    0.93440    0.93250    1.000
    O65      O        0.70790    0.89190    0.92280    1.000
    O66      O        0.75740    0.12230    0.88760    1.000
    O67      O        0.64930    0.85430    0.80290    1.000
    O68      O        0.72130    0.85300    0.71370    1.000
    O69      O        0.70160    0.07910    0.76600    1.000
    O70      O        0.77660    0.73530    0.83610    1.000
    H34      H        0.78300    0.69090    0.80580    1.000
    C17      C        0.95470    0.01070    0.11480    1.000
    C18      C        0.96590    0.97260    0.18020    1.000
    H35      H        0.95640    0.05290    0.20420    1.000
    H36      H        0.93770    0.89610    0.19090    1.000
    H37      H        0.01070    0.94510    0.18590    1.000
    C19      C        0.77790    0.88250    0.82370    1.000
    C20      C        0.84420    0.92840    0.79680    1.000
    H38      H        0.84940    0.88530    0.75900    1.000
    H39      H        0.84500    0.02890    0.79260    1.000
    H40      H        0.87930    0.89930    0.82210    1.000
    Zn16     Zn       0.39538    0.53641    0.97173    1.000
    Zn17     Zn       0.34415    0.24578    0.12229    1.000
    Zn18     Zn       0.28012    0.77429    0.17586    1.000
    P21      P        0.47318    0.35570    0.06977    1.000
    P22      P        0.37016    0.56990    0.10311    1.000
    P23      P        0.26744    0.46570    0.89597    1.000
    P24      P        0.20885    0.41990    0.77353    1.000
    O71      O        0.45010    0.38530    0.00690    1.000
    O72      O        0.54660    0.33680    0.07240    1.000
    O73      O        0.43740    0.23030    0.09740    1.000
    O74      O        0.49770    0.62500    0.10150    1.000
    H41      H        0.51180    0.61570    0.06810    1.000
    O75      O        0.32550    0.44300    0.10850    1.000
    O76      O        0.35770    0.67900    0.14910    1.000
    O77      O        0.36760    0.63470    0.04200    1.000
    O78      O        0.32720    0.43440    0.93250    1.000
    O79      O        0.20790    0.39190    0.92280    1.000
    O80      O        0.25740    0.62230    0.88760    1.000
    O81      O        0.14930    0.35430    0.80290    1.000
    O82      O        0.22130    0.35300    0.71370    1.000
    O83      O        0.20160    0.57910    0.76600    1.000
    O84      O        0.27660    0.23530    0.83610    1.000
    H42      H        0.28300    0.19090    0.80580    1.000
    C21      C        0.45470    0.51070    0.11480    1.000
    C22      C        0.46590    0.47260    0.18020    1.000
    H43      H        0.45640    0.55290    0.20420    1.000
    H44      H        0.43770    0.39610    0.19090    1.000
    H45      H        0.51070    0.44510    0.18590    1.000
    C23      C        0.27790    0.38250    0.82370    1.000
    C24      C        0.34420    0.42840    0.79680    1.000
    H46      H        0.34940    0.38530    0.75900    1.000
    H47      H        0.34500    0.52890    0.79260    1.000
    H48      H        0.37930    0.39930    0.82210    1.000
    Zn19     Zn       0.10462    0.03641    0.52827    1.000
    Zn20     Zn       0.15585    0.74578    0.37771    1.000
    Zn21     Zn       0.21988    0.27429    0.32414    1.000
    P25      P        0.02682    0.85570    0.43023    1.000
    P26      P        0.12984    0.06990    0.39689    1.000
    P27      P        0.23256    0.96570    0.60403    1.000
    P28      P        0.29115    0.91990    0.72647    1.000
    O85      O        0.04990    0.88530    0.49310    1.000
    O86      O        0.95340    0.83680    0.42760    1.000
    O87      O        0.06260    0.73030    0.40260    1.000
    O88      O        0.00230    0.12500    0.39850    1.000
    H49      H        0.98820    0.11570    0.43190    1.000
    O89      O        0.17450    0.94300    0.39150    1.000
    O90      O        0.14230    0.17900    0.35090    1.000
    O91      O        0.13240    0.13470    0.45800    1.000
    O92      O        0.17280    0.93440    0.56750    1.000
    O93      O        0.29210    0.89190    0.57720    1.000
    O94      O        0.24260    0.12230    0.61240    1.000
    O95      O        0.35070    0.85430    0.69710    1.000
    O96      O        0.27870    0.85300    0.78630    1.000
    O97      O        0.29840    0.07910    0.73400    1.000
    O98      O        0.22340    0.73530    0.66390    1.000
    H50      H        0.21700    0.69090    0.69420    1.000
    C25      C        0.04530    0.01070    0.38520    1.000
    C26      C        0.03410    0.97260    0.31980    1.000
    H51      H        0.04360    0.05290    0.29580    1.000
    H52      H        0.06230    0.89610    0.30910    1.000
    H53      H        0.98930    0.94510    0.31410    1.000
    C27      C        0.22210    0.88250    0.67630    1.000
    C28      C        0.15580    0.92840    0.70320    1.000
    H54      H        0.15060    0.88530    0.74100    1.000
    H55      H        0.15500    0.02890    0.70740    1.000
    H56      H        0.12070    0.89930    0.67790    1.000
    Zn22     Zn       0.60462    0.53641    0.52827    1.000
    Zn23     Zn       0.65585    0.24578    0.37771    1.000
    Zn24     Zn       0.71988    0.77429    0.32414    1.000
    P29      P        0.52682    0.35570    0.43023    1.000
    P30      P        0.62984    0.56990    0.39689    1.000
    P31      P        0.73256    0.46570    0.60403    1.000
    P32      P        0.79115    0.41990    0.72647    1.000
    O99      O        0.54990    0.38530    0.49310    1.000
    O100     O        0.45340    0.33680    0.42760    1.000
    O101     O        0.56260    0.23030    0.40260    1.000
    O102     O        0.50230    0.62500    0.39850    1.000
    H57      H        0.48820    0.61570    0.43190    1.000
    O103     O        0.67450    0.44300    0.39150    1.000
    O104     O        0.64230    0.67900    0.35090    1.000
    O105     O        0.63240    0.63470    0.45800    1.000
    O106     O        0.67280    0.43440    0.56750    1.000
    O107     O        0.79210    0.39190    0.57720    1.000
    O108     O        0.74260    0.62230    0.61240    1.000
    O109     O        0.85070    0.35430    0.69710    1.000
    O110     O        0.77870    0.35300    0.78630    1.000
    O111     O        0.79840    0.57910    0.73400    1.000
    O112     O        0.72340    0.23530    0.66390    1.000
    H58      H        0.71700    0.19090    0.69420    1.000
    C29      C        0.54530    0.51070    0.38520    1.000
    C30      C        0.53410    0.47260    0.31980    1.000
    H59      H        0.54360    0.55290    0.29580    1.000
    H60      H        0.56230    0.39610    0.30910    1.000
    H61      H        0.48930    0.44510    0.31410    1.000
    C31      C        0.72210    0.38250    0.67630    1.000
    C32      C        0.65580    0.42840    0.70320    1.000
    H62      H        0.65060    0.38530    0.74100    1.000
    H63      H        0.65500    0.52890    0.70740    1.000
    H64      H        0.62070    0.39930    0.67790    1.000
