# CIF file generated by openbabel 3.1.0, see https://openbabel.org
data_I
_chemical_name_common 'image0'
_cell_length_a 15.081
_cell_length_b 14.538
_cell_length_c 17.935
_cell_angle_alpha 90
_cell_angle_beta 95.951
_cell_angle_gamma 90
_space_group_name_H-M_alt 'P 1'
_space_group_name_Hall 'P 1'
loop_
    _symmetry_equiv_pos_as_xyz
    x,y,z
loop_
    _atom_site_label
    _atom_site_type_symbol
    _atom_site_fract_x
    _atom_site_fract_y
    _atom_site_fract_z
    _atom_site_occupancy
    Cd1      Cd       0.46582    0.10405    0.47998    1.000
    Cd2      Cd       0.09343    0.13285    0.83500    1.000
    O1       O        0.51880    0.82310    0.52510    1.000
    C1       C        0.69350    0.03390    0.59610    1.000
    O2       O        0.36770    0.98920    0.43780    1.000
    C2       C        0.63470    0.96390    0.57130    1.000
    H1       H        0.57940    0.97970    0.54680    1.000
    O3       O        0.62130    0.71710    0.56100    1.000
    O4       O        0.72270    0.19440    0.60660    1.000
    C3       C        0.24360    0.06490    0.36670    1.000
    H2       H        0.28670    0.11300    0.35760    1.000
    N1       N        0.41800    0.07430    0.59280    1.000
    C4       C        0.80360    0.92040    0.63170    1.000
    O5       O        0.59300    0.15200    0.54650    1.000
    C5       C        0.59250    0.79950    0.55310    1.000
    O6       O        0.26000    0.90200    0.38390    1.000
    C6       C        0.74530    0.85090    0.61450    1.000
    H3       H        0.76220    0.79010    0.62360    1.000
    N2       N        0.54410    0.06620    0.38350    1.000
    O7       O        0.91340    0.85690    0.72570    1.000
    N3       N        0.41050    0.05930    0.71470    1.000
    O8       O        0.17550    0.08570    0.95220    1.000
    C7       C        0.66880    0.13370    0.58210    1.000
    N4       N        0.18650    0.04500    0.29770    1.000
    C8       C        0.89750    0.89920    0.66530    1.000
    C9       C        0.17960    0.09990    0.41900    1.000
    H4       H        0.20490    0.15210    0.44750    1.000
    H5       H        0.16570    0.05210    0.45360    1.000
    C10      C        0.36920    0.06090    0.84200    1.000
    H6       H        0.30950    0.06710    0.82380    1.000
    C11      C        0.46140    0.08020    0.65930    1.000
    H7       H        0.52110    0.09700    0.66770    1.000
    C12      C        0.05790    0.87140    0.12030    1.000
    O9       O        0.04120    0.02470    0.91990    1.000
    C13      C        0.32530    0.03740    0.67880    1.000
    H8       H        0.27460    0.02000    0.70080    1.000
    C14      C        0.50540    0.06190    0.31570    1.000
    H9       H        0.44400    0.06210    0.30300    1.000
    C15      C        0.48220    0.04960    0.94780    1.000
    C16      C        0.39420    0.05710    0.91750    1.000
    H10      H        0.35010    0.05960    0.94990    1.000
    C17      C        0.16640    0.98100    0.17210    1.000
    C18      C        0.54610    0.04140    0.89720    1.000
    H11      H        0.60550    0.03410    0.91590    1.000
    C19      C        0.63160    0.06810    0.37740    1.000
    H12      H        0.67450    0.07340    0.41830    1.000
    O10      O        0.30690    0.01350    0.23700    1.000
    N5       N        0.56650    0.05710    0.26570    1.000
    C20      C        0.52500    0.04360    0.82190    1.000
    H13      H        0.56950    0.03740    0.79010    1.000
    C21      C        0.29270    0.97820    0.39770    1.000
    C22      C        0.65130    0.06140    0.30590    1.000
    H14      H        0.70690    0.06000    0.28780    1.000
    O11      O        0.14270    0.00830    0.75850    1.000
    O12      O        0.00910    0.06320    0.73200    1.000
    C23      C        0.11140    0.03900    0.96340    1.000
    C24      C        0.22450    0.01390    0.23680    1.000
    N6       N        0.96040    0.93370    0.62430    1.000
    C25      C        0.09460    0.05800    0.30790    1.000
    H15      H        0.06830    0.00100    0.32320    1.000
    H16      H        0.06150    0.07910    0.26180    1.000
    C26      C        0.05870    0.93930    0.65560    1.000
    H17      H        0.07850    0.87820    0.67350    1.000
    C27      C        0.06990    0.00690    0.72170    1.000
    C28      C        0.33430    0.04760    0.60570    1.000
    H18      H        0.28840    0.03740    0.56790    1.000
    C29      C        0.05710    0.91810    0.05050    1.000
    H19      H        0.01710    0.89900    0.01050    1.000
    C30      C        0.77940    0.01170    0.62430    1.000
    H20      H        0.82060    0.05780    0.63810    1.000
    C31      C        0.10850    0.90760    0.18130    1.000
    H21      H        0.10430    0.88340    0.22880    1.000
    C32      C        0.43580    0.05530    0.79180    1.000
    C33      C        0.54790    0.05190    0.18630    1.000
    C34      C        0.50710    0.04770    0.03100    1.000
    C35      C        0.17090    0.02080    0.10180    1.000
    H22      H        0.21180    0.06740    0.09550    1.000
    C36      C        0.65500    0.87330    0.58140    1.000
    C37      C        0.46480    0.08900    0.15340    1.000
    H23      H        0.42450    0.11770    0.18170    1.000
    C38      C        0.60600    0.02130    0.14130    1.000
    H24      H        0.66180    0.00180    0.16240    1.000
    O13      O        0.00770    0.74560    0.18960    1.000
    C39      C        0.09400    0.12930    0.36800    1.000
    H25      H        0.04100    0.12520    0.39410    1.000
    H26      H        0.09920    0.19100    0.34830    1.000
    C40      C        0.58610    0.01740    0.06320    1.000
    H27      H        0.62780    0.99370    0.03360    1.000
    C41      C        0.11260    0.98940    0.04030    1.000
    C42      C        0.10520    0.96350    0.59120    1.000
    H28      H        0.16270    0.93310    0.59400    1.000
    H29      H        0.11450    0.02940    0.58930    1.000
    C43      C        0.44890    0.07930    0.07700    1.000
    H30      H        0.39270    0.09620    0.05500    1.000
    C44      C        0.00130    0.79150    0.13140    1.000
    O14      O        0.94230    0.76250    0.08150    1.000
    C45      C        0.94940    0.96790    0.55090    1.000
    H31      H        0.94460    0.03440    0.54970    1.000
    H32      H        0.89820    0.94100    0.52170    1.000
    C46      C        0.04600    0.93150    0.52210    1.000
    H33      H        0.04750    0.86530    0.51550    1.000
    H34      H        0.05990    0.96210    0.47670    1.000
    Cd3      Cd       0.53418    0.60405    0.52002    1.000
    Cd4      Cd       0.90657    0.63285    0.16500    1.000
    O15      O        0.48120    0.32310    0.47490    1.000
    C47      C        0.30650    0.53390    0.40390    1.000
    O16      O        0.63230    0.48920    0.56220    1.000
    C48      C        0.36530    0.46390    0.42870    1.000
    H35      H        0.42060    0.47970    0.45320    1.000
    O17      O        0.37870    0.21710    0.43900    1.000
    O18      O        0.27730    0.69440    0.39340    1.000
    C49      C        0.75640    0.56490    0.63330    1.000
    H36      H        0.71330    0.61300    0.64240    1.000
    N7       N        0.58200    0.57430    0.40720    1.000
    C50      C        0.19640    0.42040    0.36830    1.000
    O19      O        0.40700    0.65200    0.45350    1.000
    C51      C        0.40750    0.29950    0.44690    1.000
    O20      O        0.74000    0.40200    0.61610    1.000
    C52      C        0.25470    0.35090    0.38550    1.000
    H37      H        0.23780    0.29010    0.37640    1.000
    N8       N        0.45590    0.56620    0.61650    1.000
    O21      O        0.08660    0.35690    0.27430    1.000
    N9       N        0.58950    0.55930    0.28530    1.000
    O22      O        0.82450    0.58570    0.04780    1.000
    C53      C        0.33120    0.63370    0.41790    1.000
    N10      N        0.81350    0.54500    0.70230    1.000
    C54      C        0.10250    0.39920    0.33470    1.000
    C55      C        0.82040    0.59990    0.58100    1.000
    H38      H        0.79510    0.65210    0.55250    1.000
    H39      H        0.83430    0.55210    0.54640    1.000
    C56      C        0.63080    0.56090    0.15800    1.000
    H40      H        0.69050    0.56710    0.17620    1.000
    C57      C        0.53860    0.58020    0.34070    1.000
    H41      H        0.47890    0.59700    0.33230    1.000
    C58      C        0.94210    0.37140    0.87970    1.000
    O23      O        0.95880    0.52470    0.08010    1.000
    C59      C        0.67470    0.53740    0.32120    1.000
    H42      H        0.72540    0.52000    0.29920    1.000
    C60      C        0.49460    0.56190    0.68430    1.000
    H43      H        0.55600    0.56210    0.69700    1.000
    C61      C        0.51780    0.54960    0.05220    1.000
    C62      C        0.60580    0.55710    0.08250    1.000
    H44      H        0.64990    0.55960    0.05010    1.000
    C63      C        0.83360    0.48100    0.82790    1.000
    C64      C        0.45390    0.54140    0.10280    1.000
    H45      H        0.39450    0.53410    0.08410    1.000
    C65      C        0.36840    0.56810    0.62260    1.000
    H46      H        0.32550    0.57340    0.58170    1.000
    O24      O        0.69310    0.51350    0.76300    1.000
    N11      N        0.43350    0.55710    0.73430    1.000
    C66      C        0.47500    0.54360    0.17810    1.000
    H47      H        0.43050    0.53740    0.20990    1.000
    C67      C        0.70730    0.47820    0.60230    1.000
    C68      C        0.34870    0.56140    0.69410    1.000
    H48      H        0.29310    0.56000    0.71220    1.000
    O25      O        0.85730    0.50830    0.24150    1.000
    O26      O        0.99090    0.56320    0.26800    1.000
    C69      C        0.88860    0.53900    0.03660    1.000
    C70      C        0.77550    0.51390    0.76320    1.000
    N12      N        0.03960    0.43370    0.37570    1.000
    C71      C        0.90540    0.55800    0.69210    1.000
    H49      H        0.93170    0.50100    0.67680    1.000
    H50      H        0.93850    0.57910    0.73820    1.000
    C72      C        0.94130    0.43930    0.34440    1.000
    H51      H        0.92150    0.37820    0.32650    1.000
    C73      C        0.93010    0.50690    0.27830    1.000
    C74      C        0.66570    0.54760    0.39430    1.000
    H52      H        0.71160    0.53740    0.43210    1.000
    C75      C        0.94290    0.41810    0.94950    1.000
    H53      H        0.98290    0.39900    0.98950    1.000
    C76      C        0.22060    0.51170    0.37570    1.000
    H54      H        0.17940    0.55780    0.36190    1.000
    C77      C        0.89150    0.40760    0.81870    1.000
    H55      H        0.89570    0.38340    0.77120    1.000
    C78      C        0.56420    0.55530    0.20820    1.000
    C79      C        0.45210    0.55190    0.81370    1.000
    C80      C        0.49290    0.54770    0.96900    1.000
    C81      C        0.82910    0.52080    0.89820    1.000
    H56      H        0.78820    0.56740    0.90450    1.000
    C82      C        0.34500    0.37330    0.41860    1.000
    C83      C        0.53520    0.58900    0.84660    1.000
    H57      H        0.57550    0.61770    0.81830    1.000
    C84      C        0.39400    0.52130    0.85870    1.000
    H58      H        0.33820    0.50180    0.83760    1.000
    O27      O        0.99230    0.24560    0.81040    1.000
    C85      C        0.90600    0.62930    0.63200    1.000
    H59      H        0.95900    0.62520    0.60590    1.000
    H60      H        0.90080    0.69100    0.65170    1.000
    C86      C        0.41390    0.51740    0.93680    1.000
    H61      H        0.37220    0.49370    0.96640    1.000
    C87      C        0.88740    0.48940    0.95970    1.000
    C88      C        0.89480    0.46350    0.40880    1.000
    H62      H        0.83730    0.43310    0.40600    1.000
    H63      H        0.88550    0.52940    0.41070    1.000
    C89      C        0.55110    0.57930    0.92300    1.000
    H64      H        0.60730    0.59620    0.94500    1.000
    C90      C        0.99870    0.29150    0.86860    1.000
    O28      O        0.05770    0.26250    0.91850    1.000
    C91      C        0.05060    0.46790    0.44910    1.000
    H65      H        0.05540    0.53440    0.45030    1.000
    H66      H        0.10180    0.44100    0.47830    1.000
    C92      C        0.95400    0.43150    0.47790    1.000
    H67      H        0.95250    0.36530    0.48450    1.000
    H68      H        0.94010    0.46210    0.52330    1.000
