# CIF file generated by openbabel 3.1.0, see https://openbabel.org
data_I
_chemical_name_common 'image0'
_cell_length_a 24.5681
_cell_length_b 24.5681
_cell_length_c 24.5681
_cell_angle_alpha 90
_cell_angle_beta 90
_cell_angle_gamma 90
_space_group_name_H-M_alt 'P 1'
_space_group_name_Hall 'P 1'
loop_
    _symmetry_equiv_pos_as_xyz
    x,y,z
loop_
    _atom_site_label
    _atom_site_type_symbol
    _atom_site_fract_x
    _atom_site_fract_y
    _atom_site_fract_z
    _atom_site_occupancy
    O1       O        0.15170    0.99960    0.91240    1.000
    O2       O        0.08760    0.00380    0.84800    1.000
    C1       C        0.13680    0.00930    0.86420    1.000
    C2       C        0.16720    0.01150    0.81170    1.000
    C3       C        0.22330    0.01490    0.82110    1.000
    C4       C        0.23960    0.01250    0.72360    1.000
    C5       C        0.14700    0.01440    0.75890    1.000
    C6       C        0.18230    0.01000    0.71500    1.000
    C7       C        0.18680    0.00920    0.83080    1.000
    C8       C        0.17950    0.98630    0.77900    1.000
    C9       C        0.27690    0.99170    0.76300    1.000
    C10      C        0.23900    0.01790    0.85080    1.000
    C11      C        0.28350    0.01390    0.81620    1.000
    O3       O        0.15170    0.49960    0.41240    1.000
    O4       O        0.08760    0.50380    0.34800    1.000
    C12      C        0.13680    0.50930    0.36420    1.000
    C13      C        0.16720    0.51150    0.31170    1.000
    C14      C        0.22330    0.51490    0.32110    1.000
    C15      C        0.23960    0.51250    0.22360    1.000
    C16      C        0.14700    0.51440    0.25890    1.000
    C17      C        0.18230    0.51000    0.21500    1.000
    C18      C        0.18680    0.50920    0.33080    1.000
    C19      C        0.17950    0.48630    0.27900    1.000
    C20      C        0.27690    0.49170    0.26300    1.000
    C21      C        0.23900    0.51790    0.35080    1.000
    C22      C        0.28350    0.51390    0.31620    1.000
    O5       O        0.65170    0.99960    0.41240    1.000
    O6       O        0.58760    0.00380    0.34800    1.000
    C23      C        0.63680    0.00930    0.36420    1.000
    C24      C        0.66720    0.01150    0.31170    1.000
    C25      C        0.72330    0.01490    0.32110    1.000
    C26      C        0.73960    0.01250    0.22360    1.000
    C27      C        0.64700    0.01440    0.25890    1.000
    C28      C        0.68230    0.01000    0.21500    1.000
    C29      C        0.68680    0.00920    0.33080    1.000
    C30      C        0.67950    0.98630    0.27900    1.000
    C31      C        0.77690    0.99170    0.26300    1.000
    C32      C        0.73900    0.01790    0.35080    1.000
    C33      C        0.78350    0.01390    0.31620    1.000
    O7       O        0.65170    0.49960    0.91240    1.000
    O8       O        0.58760    0.50380    0.84800    1.000
    C34      C        0.63680    0.50930    0.86420    1.000
    C35      C        0.66720    0.51150    0.81170    1.000
    C36      C        0.72330    0.51490    0.82110    1.000
    C37      C        0.73960    0.51250    0.72360    1.000
    C38      C        0.64700    0.51440    0.75890    1.000
    C39      C        0.68230    0.51000    0.71500    1.000
    C40      C        0.68680    0.50920    0.83080    1.000
    C41      C        0.67950    0.48630    0.77900    1.000
    C42      C        0.77690    0.49170    0.76300    1.000
    C43      C        0.73900    0.51790    0.85080    1.000
    C44      C        0.78350    0.51390    0.81620    1.000
    O9       O        0.84830    0.00040    0.91240    1.000
    O10      O        0.91240    0.99620    0.84800    1.000
    C45      C        0.86320    0.99070    0.86420    1.000
    C46      C        0.83280    0.98850    0.81170    1.000
    C47      C        0.77670    0.98510    0.82110    1.000
    C48      C        0.76040    0.98750    0.72360    1.000
    C49      C        0.85300    0.98560    0.75890    1.000
    C50      C        0.81770    0.99000    0.71500    1.000
    C51      C        0.81320    0.99080    0.83080    1.000
    C52      C        0.82050    0.01370    0.77900    1.000
    C53      C        0.72310    0.00830    0.76300    1.000
    C54      C        0.76100    0.98210    0.85080    1.000
    C55      C        0.71650    0.98610    0.81620    1.000
    O11      O        0.84830    0.50040    0.41240    1.000
    O12      O        0.91240    0.49620    0.34800    1.000
    C56      C        0.86320    0.49070    0.36420    1.000
    C57      C        0.83280    0.48850    0.31170    1.000
    C58      C        0.77670    0.48510    0.32110    1.000
    C59      C        0.76040    0.48750    0.22360    1.000
    C60      C        0.85300    0.48560    0.25890    1.000
    C61      C        0.81770    0.49000    0.21500    1.000
    C62      C        0.81320    0.49080    0.33080    1.000
    C63      C        0.82050    0.51370    0.27900    1.000
    C64      C        0.72310    0.50830    0.26300    1.000
    C65      C        0.76100    0.48210    0.35080    1.000
    C66      C        0.71650    0.48610    0.31620    1.000
    O13      O        0.34830    0.00040    0.41240    1.000
    O14      O        0.41240    0.99620    0.34800    1.000
    C67      C        0.36320    0.99070    0.36420    1.000
    C68      C        0.33280    0.98850    0.31170    1.000
    C69      C        0.27670    0.98510    0.32110    1.000
    C70      C        0.26040    0.98750    0.22360    1.000
    C71      C        0.35300    0.98560    0.25890    1.000
    C72      C        0.31770    0.99000    0.21500    1.000
    C73      C        0.31320    0.99080    0.33080    1.000
    C74      C        0.32050    0.01370    0.27900    1.000
    C75      C        0.22310    0.00830    0.26300    1.000
    C76      C        0.26100    0.98210    0.35080    1.000
    C77      C        0.21650    0.98610    0.31620    1.000
    O15      O        0.34830    0.50040    0.91240    1.000
    O16      O        0.41240    0.49620    0.84800    1.000
    C78      C        0.36320    0.49070    0.86420    1.000
    C79      C        0.33280    0.48850    0.81170    1.000
    C80      C        0.27670    0.48510    0.82110    1.000
    C81      C        0.26040    0.48750    0.72360    1.000
    C82      C        0.35300    0.48560    0.75890    1.000
    C83      C        0.31770    0.49000    0.71500    1.000
    C84      C        0.31320    0.49080    0.83080    1.000
    C85      C        0.32050    0.51370    0.77900    1.000
    C86      C        0.22310    0.50830    0.76300    1.000
    C87      C        0.26100    0.48210    0.85080    1.000
    C88      C        0.21650    0.48610    0.81620    1.000
    O17      O        0.84830    0.99960    0.08760    1.000
    O18      O        0.91240    0.00380    0.15200    1.000
    C89      C        0.86320    0.00930    0.13580    1.000
    C90      C        0.83280    0.01150    0.18830    1.000
    C91      C        0.77670    0.01490    0.17890    1.000
    C92      C        0.76040    0.01250    0.27640    1.000
    C93      C        0.85300    0.01440    0.24110    1.000
    C94      C        0.81770    0.01000    0.28500    1.000
    C95      C        0.81320    0.00920    0.16920    1.000
    C96      C        0.82050    0.98630    0.22100    1.000
    C97      C        0.72310    0.99170    0.23700    1.000
    C98      C        0.76100    0.01790    0.14920    1.000
    C99      C        0.71650    0.01390    0.18380    1.000
    O19      O        0.84830    0.49960    0.58760    1.000
    O20      O        0.91240    0.50380    0.65200    1.000
    C100     C        0.86320    0.50930    0.63580    1.000
    C101     C        0.83280    0.51150    0.68830    1.000
    C102     C        0.77670    0.51490    0.67890    1.000
    C103     C        0.76040    0.51250    0.77640    1.000
    C104     C        0.85300    0.51440    0.74110    1.000
    C105     C        0.81770    0.51000    0.78500    1.000
    C106     C        0.81320    0.50920    0.66920    1.000
    C107     C        0.82050    0.48630    0.72100    1.000
    C108     C        0.72310    0.49170    0.73700    1.000
    C109     C        0.76100    0.51790    0.64920    1.000
    C110     C        0.71650    0.51390    0.68380    1.000
    O21      O        0.34830    0.99960    0.58760    1.000
    O22      O        0.41240    0.00380    0.65200    1.000
    C111     C        0.36320    0.00930    0.63580    1.000
    C112     C        0.33280    0.01150    0.68830    1.000
    C113     C        0.27670    0.01490    0.67890    1.000
    C114     C        0.26040    0.01250    0.77640    1.000
    C115     C        0.35300    0.01440    0.74110    1.000
    C116     C        0.31770    0.01000    0.78500    1.000
    C117     C        0.31320    0.00920    0.66920    1.000
    C118     C        0.32050    0.98630    0.72100    1.000
    C119     C        0.22310    0.99170    0.73700    1.000
    C120     C        0.26100    0.01790    0.64920    1.000
    C121     C        0.21650    0.01390    0.68380    1.000
    O23      O        0.34830    0.49960    0.08760    1.000
    O24      O        0.41240    0.50380    0.15200    1.000
    C122     C        0.36320    0.50930    0.13580    1.000
    C123     C        0.33280    0.51150    0.18830    1.000
    C124     C        0.27670    0.51490    0.17890    1.000
    C125     C        0.26040    0.51250    0.27640    1.000
    C126     C        0.35300    0.51440    0.24110    1.000
    C127     C        0.31770    0.51000    0.28500    1.000
    C128     C        0.31320    0.50920    0.16920    1.000
    C129     C        0.32050    0.48630    0.22100    1.000
    C130     C        0.22310    0.49170    0.23700    1.000
    C131     C        0.26100    0.51790    0.14920    1.000
    C132     C        0.21650    0.51390    0.18380    1.000
    O25      O        0.15170    0.00040    0.08760    1.000
    O26      O        0.08760    0.99620    0.15200    1.000
    C133     C        0.13680    0.99070    0.13580    1.000
    C134     C        0.16720    0.98850    0.18830    1.000
    C135     C        0.22330    0.98510    0.17890    1.000
    C136     C        0.23960    0.98750    0.27640    1.000
    C137     C        0.14700    0.98560    0.24110    1.000
    C138     C        0.18230    0.99000    0.28500    1.000
    C139     C        0.18680    0.99080    0.16920    1.000
    C140     C        0.17950    0.01370    0.22100    1.000
    C141     C        0.27690    0.00830    0.23700    1.000
    C142     C        0.23900    0.98210    0.14920    1.000
    C143     C        0.28350    0.98610    0.18380    1.000
    O27      O        0.15170    0.50040    0.58760    1.000
    O28      O        0.08760    0.49620    0.65200    1.000
    C144     C        0.13680    0.49070    0.63580    1.000
    C145     C        0.16720    0.48850    0.68830    1.000
    C146     C        0.22330    0.48510    0.67890    1.000
    C147     C        0.23960    0.48750    0.77640    1.000
    C148     C        0.14700    0.48560    0.74110    1.000
    C149     C        0.18230    0.49000    0.78500    1.000
    C150     C        0.18680    0.49080    0.66920    1.000
    C151     C        0.17950    0.51370    0.72100    1.000
    C152     C        0.27690    0.50830    0.73700    1.000
    C153     C        0.23900    0.48210    0.64920    1.000
    C154     C        0.28350    0.48610    0.68380    1.000
    O29      O        0.65170    0.00040    0.58760    1.000
    O30      O        0.58760    0.99620    0.65200    1.000
    C155     C        0.63680    0.99070    0.63580    1.000
    C156     C        0.66720    0.98850    0.68830    1.000
    C157     C        0.72330    0.98510    0.67890    1.000
    C158     C        0.73960    0.98750    0.77640    1.000
    C159     C        0.64700    0.98560    0.74110    1.000
    C160     C        0.68230    0.99000    0.78500    1.000
    C161     C        0.68680    0.99080    0.66920    1.000
    C162     C        0.67950    0.01370    0.72100    1.000
    C163     C        0.77690    0.00830    0.73700    1.000
    C164     C        0.73900    0.98210    0.64920    1.000
    C165     C        0.78350    0.98610    0.68380    1.000
    O31      O        0.65170    0.50040    0.08760    1.000
    O32      O        0.58760    0.49620    0.15200    1.000
    C166     C        0.63680    0.49070    0.13580    1.000
    C167     C        0.66720    0.48850    0.18830    1.000
    C168     C        0.72330    0.48510    0.17890    1.000
    C169     C        0.73960    0.48750    0.27640    1.000
    C170     C        0.64700    0.48560    0.24110    1.000
    C171     C        0.68230    0.49000    0.28500    1.000
    C172     C        0.68680    0.49080    0.16920    1.000
    C173     C        0.67950    0.51370    0.22100    1.000
    C174     C        0.77690    0.50830    0.23700    1.000
    C175     C        0.73900    0.48210    0.14920    1.000
    C176     C        0.78350    0.48610    0.18380    1.000
    O33      O        0.91240    0.15170    0.99960    1.000
    O34      O        0.84800    0.08760    0.00380    1.000
    C177     C        0.86420    0.13680    0.00930    1.000
    C178     C        0.81170    0.16720    0.01150    1.000
    C179     C        0.82110    0.22330    0.01490    1.000
    C180     C        0.72360    0.23960    0.01250    1.000
    C181     C        0.75890    0.14700    0.01440    1.000
    C182     C        0.71500    0.18230    0.01000    1.000
    C183     C        0.83080    0.18680    0.00920    1.000
    C184     C        0.77900    0.17950    0.98630    1.000
    C185     C        0.76300    0.27690    0.99170    1.000
    C186     C        0.85080    0.23900    0.01790    1.000
    C187     C        0.81620    0.28350    0.01390    1.000
    O35      O        0.91240    0.65170    0.49960    1.000
    O36      O        0.84800    0.58760    0.50380    1.000
    C188     C        0.86420    0.63680    0.50930    1.000
    C189     C        0.81170    0.66720    0.51150    1.000
    C190     C        0.82110    0.72330    0.51490    1.000
    C191     C        0.72360    0.73960    0.51250    1.000
    C192     C        0.75890    0.64700    0.51440    1.000
    C193     C        0.71500    0.68230    0.51000    1.000
    C194     C        0.83080    0.68680    0.50920    1.000
    C195     C        0.77900    0.67950    0.48630    1.000
    C196     C        0.76300    0.77690    0.49170    1.000
    C197     C        0.85080    0.73900    0.51790    1.000
    C198     C        0.81620    0.78350    0.51390    1.000
    O37      O        0.41240    0.15170    0.49960    1.000
    O38      O        0.34800    0.08760    0.50380    1.000
    C199     C        0.36420    0.13680    0.50930    1.000
    C200     C        0.31170    0.16720    0.51150    1.000
    C201     C        0.32110    0.22330    0.51490    1.000
    C202     C        0.22360    0.23960    0.51250    1.000
    C203     C        0.25890    0.14700    0.51440    1.000
    C204     C        0.21500    0.18230    0.51000    1.000
    C205     C        0.33080    0.18680    0.50920    1.000
    C206     C        0.27900    0.17950    0.48630    1.000
    C207     C        0.26300    0.27690    0.49170    1.000
    C208     C        0.35080    0.23900    0.51790    1.000
    C209     C        0.31620    0.28350    0.51390    1.000
    O39      O        0.41240    0.65170    0.99960    1.000
    O40      O        0.34800    0.58760    0.00380    1.000
    C210     C        0.36420    0.63680    0.00930    1.000
    C211     C        0.31170    0.66720    0.01150    1.000
    C212     C        0.32110    0.72330    0.01490    1.000
    C213     C        0.22360    0.73960    0.01250    1.000
    C214     C        0.25890    0.64700    0.01440    1.000
    C215     C        0.21500    0.68230    0.01000    1.000
    C216     C        0.33080    0.68680    0.00920    1.000
    C217     C        0.27900    0.67950    0.98630    1.000
    C218     C        0.26300    0.77690    0.99170    1.000
    C219     C        0.35080    0.73900    0.01790    1.000
    C220     C        0.31620    0.78350    0.01390    1.000
    O41      O        0.91240    0.84830    0.00040    1.000
    O42      O        0.84800    0.91240    0.99620    1.000
    C221     C        0.86420    0.86320    0.99070    1.000
    C222     C        0.81170    0.83280    0.98850    1.000
    C223     C        0.82110    0.77670    0.98510    1.000
    C224     C        0.72360    0.76040    0.98750    1.000
    C225     C        0.75890    0.85300    0.98560    1.000
    C226     C        0.71500    0.81770    0.99000    1.000
    C227     C        0.83080    0.81320    0.99080    1.000
    C228     C        0.77900    0.82050    0.01370    1.000
    C229     C        0.76300    0.72310    0.00830    1.000
    C230     C        0.85080    0.76100    0.98210    1.000
    C231     C        0.81620    0.71650    0.98610    1.000
    O43      O        0.91240    0.34830    0.50040    1.000
    O44      O        0.84800    0.41240    0.49620    1.000
    C232     C        0.86420    0.36320    0.49070    1.000
    C233     C        0.81170    0.33280    0.48850    1.000
    C234     C        0.82110    0.27670    0.48510    1.000
    C235     C        0.72360    0.26040    0.48750    1.000
    C236     C        0.75890    0.35300    0.48560    1.000
    C237     C        0.71500    0.31770    0.49000    1.000
    C238     C        0.83080    0.31320    0.49080    1.000
    C239     C        0.77900    0.32050    0.51370    1.000
    C240     C        0.76300    0.22310    0.50830    1.000
    C241     C        0.85080    0.26100    0.48210    1.000
    C242     C        0.81620    0.21650    0.48610    1.000
    O45      O        0.41240    0.84830    0.50040    1.000
    O46      O        0.34800    0.91240    0.49620    1.000
    C243     C        0.36420    0.86320    0.49070    1.000
    C244     C        0.31170    0.83280    0.48850    1.000
    C245     C        0.32110    0.77670    0.48510    1.000
    C246     C        0.22360    0.76040    0.48750    1.000
    C247     C        0.25890    0.85300    0.48560    1.000
    C248     C        0.21500    0.81770    0.49000    1.000
    C249     C        0.33080    0.81320    0.49080    1.000
    C250     C        0.27900    0.82050    0.51370    1.000
    C251     C        0.26300    0.72310    0.50830    1.000
    C252     C        0.35080    0.76100    0.48210    1.000
    C253     C        0.31620    0.71650    0.48610    1.000
    O47      O        0.41240    0.34830    0.00040    1.000
    O48      O        0.34800    0.41240    0.99620    1.000
    C254     C        0.36420    0.36320    0.99070    1.000
    C255     C        0.31170    0.33280    0.98850    1.000
    C256     C        0.32110    0.27670    0.98510    1.000
    C257     C        0.22360    0.26040    0.98750    1.000
    C258     C        0.25890    0.35300    0.98560    1.000
    C259     C        0.21500    0.31770    0.99000    1.000
    C260     C        0.33080    0.31320    0.99080    1.000
    C261     C        0.27900    0.32050    0.01370    1.000
    C262     C        0.26300    0.22310    0.00830    1.000
    C263     C        0.35080    0.26100    0.98210    1.000
    C264     C        0.31620    0.21650    0.98610    1.000
    O49      O        0.08760    0.84830    0.99960    1.000
    O50      O        0.15200    0.91240    0.00380    1.000
    C265     C        0.13580    0.86320    0.00930    1.000
    C266     C        0.18830    0.83280    0.01150    1.000
    C267     C        0.17890    0.77670    0.01490    1.000
    C268     C        0.27640    0.76040    0.01250    1.000
    C269     C        0.24110    0.85300    0.01440    1.000
    C270     C        0.28500    0.81770    0.01000    1.000
    C271     C        0.16920    0.81320    0.00920    1.000
    C272     C        0.22100    0.82050    0.98630    1.000
    C273     C        0.23700    0.72310    0.99170    1.000
    C274     C        0.14920    0.76100    0.01790    1.000
    C275     C        0.18380    0.71650    0.01390    1.000
    O51      O        0.08760    0.34830    0.49960    1.000
    O52      O        0.15200    0.41240    0.50380    1.000
    C276     C        0.13580    0.36320    0.50930    1.000
    C277     C        0.18830    0.33280    0.51150    1.000
    C278     C        0.17890    0.27670    0.51490    1.000
    C279     C        0.27640    0.26040    0.51250    1.000
    C280     C        0.24110    0.35300    0.51440    1.000
    C281     C        0.28500    0.31770    0.51000    1.000
    C282     C        0.16920    0.31320    0.50920    1.000
    C283     C        0.22100    0.32050    0.48630    1.000
    C284     C        0.23700    0.22310    0.49170    1.000
    C285     C        0.14920    0.26100    0.51790    1.000
    C286     C        0.18380    0.21650    0.51390    1.000
    O53      O        0.58760    0.84830    0.49960    1.000
    O54      O        0.65200    0.91240    0.50380    1.000
    C287     C        0.63580    0.86320    0.50930    1.000
    C288     C        0.68830    0.83280    0.51150    1.000
    C289     C        0.67890    0.77670    0.51490    1.000
    C290     C        0.77640    0.76040    0.51250    1.000
    C291     C        0.74110    0.85300    0.51440    1.000
    C292     C        0.78500    0.81770    0.51000    1.000
    C293     C        0.66920    0.81320    0.50920    1.000
    C294     C        0.72100    0.82050    0.48630    1.000
    C295     C        0.73700    0.72310    0.49170    1.000
    C296     C        0.64920    0.76100    0.51790    1.000
    C297     C        0.68380    0.71650    0.51390    1.000
    O55      O        0.58760    0.34830    0.99960    1.000
    O56      O        0.65200    0.41240    0.00380    1.000
    C298     C        0.63580    0.36320    0.00930    1.000
    C299     C        0.68830    0.33280    0.01150    1.000
    C300     C        0.67890    0.27670    0.01490    1.000
    C301     C        0.77640    0.26040    0.01250    1.000
    C302     C        0.74110    0.35300    0.01440    1.000
    C303     C        0.78500    0.31770    0.01000    1.000
    C304     C        0.66920    0.31320    0.00920    1.000
    C305     C        0.72100    0.32050    0.98630    1.000
    C306     C        0.73700    0.22310    0.99170    1.000
    C307     C        0.64920    0.26100    0.01790    1.000
    C308     C        0.68380    0.21650    0.01390    1.000
    O57      O        0.08760    0.15170    0.00040    1.000
    O58      O        0.15200    0.08760    0.99620    1.000
    C309     C        0.13580    0.13680    0.99070    1.000
    C310     C        0.18830    0.16720    0.98850    1.000
    C311     C        0.17890    0.22330    0.98510    1.000
    C312     C        0.27640    0.23960    0.98750    1.000
    C313     C        0.24110    0.14700    0.98560    1.000
    C314     C        0.28500    0.18230    0.99000    1.000
    C315     C        0.16920    0.18680    0.99080    1.000
    C316     C        0.22100    0.17950    0.01370    1.000
    C317     C        0.23700    0.27690    0.00830    1.000
    C318     C        0.14920    0.23900    0.98210    1.000
    C319     C        0.18380    0.28350    0.98610    1.000
    O59      O        0.08760    0.65170    0.50040    1.000
    O60      O        0.15200    0.58760    0.49620    1.000
    C320     C        0.13580    0.63680    0.49070    1.000
    C321     C        0.18830    0.66720    0.48850    1.000
    C322     C        0.17890    0.72330    0.48510    1.000
    C323     C        0.27640    0.73960    0.48750    1.000
    C324     C        0.24110    0.64700    0.48560    1.000
    C325     C        0.28500    0.68230    0.49000    1.000
    C326     C        0.16920    0.68680    0.49080    1.000
    C327     C        0.22100    0.67950    0.51370    1.000
    C328     C        0.23700    0.77690    0.50830    1.000
    C329     C        0.14920    0.73900    0.48210    1.000
    C330     C        0.18380    0.78350    0.48610    1.000
    O61      O        0.58760    0.15170    0.50040    1.000
    O62      O        0.65200    0.08760    0.49620    1.000
    C331     C        0.63580    0.13680    0.49070    1.000
    C332     C        0.68830    0.16720    0.48850    1.000
    C333     C        0.67890    0.22330    0.48510    1.000
    C334     C        0.77640    0.23960    0.48750    1.000
    C335     C        0.74110    0.14700    0.48560    1.000
    C336     C        0.78500    0.18230    0.49000    1.000
    C337     C        0.66920    0.18680    0.49080    1.000
    C338     C        0.72100    0.17950    0.51370    1.000
    C339     C        0.73700    0.27690    0.50830    1.000
    C340     C        0.64920    0.23900    0.48210    1.000
    C341     C        0.68380    0.28350    0.48610    1.000
    O63      O        0.58760    0.65170    0.00040    1.000
    O64      O        0.65200    0.58760    0.99620    1.000
    C342     C        0.63580    0.63680    0.99070    1.000
    C343     C        0.68830    0.66720    0.98850    1.000
    C344     C        0.67890    0.72330    0.98510    1.000
    C345     C        0.77640    0.73960    0.98750    1.000
    C346     C        0.74110    0.64700    0.98560    1.000
    C347     C        0.78500    0.68230    0.99000    1.000
    C348     C        0.66920    0.68680    0.99080    1.000
    C349     C        0.72100    0.67950    0.01370    1.000
    C350     C        0.73700    0.77690    0.00830    1.000
    C351     C        0.64920    0.73900    0.98210    1.000
    C352     C        0.68380    0.78350    0.98610    1.000
    O65      O        0.99960    0.91240    0.15170    1.000
    O66      O        0.00380    0.84800    0.08760    1.000
    C353     C        0.00930    0.86420    0.13680    1.000
    C354     C        0.01150    0.81170    0.16720    1.000
    C355     C        0.01490    0.82110    0.22330    1.000
    C356     C        0.01250    0.72360    0.23960    1.000
    C357     C        0.01440    0.75890    0.14700    1.000
    C358     C        0.01000    0.71500    0.18230    1.000
    C359     C        0.00920    0.83080    0.18680    1.000
    C360     C        0.98630    0.77900    0.17950    1.000
    C361     C        0.99170    0.76300    0.27690    1.000
    C362     C        0.01790    0.85080    0.23900    1.000
    C363     C        0.01390    0.81620    0.28350    1.000
    O67      O        0.99960    0.41240    0.65170    1.000
    O68      O        0.00380    0.34800    0.58760    1.000
    C364     C        0.00930    0.36420    0.63680    1.000
    C365     C        0.01150    0.31170    0.66720    1.000
    C366     C        0.01490    0.32110    0.72330    1.000
    C367     C        0.01250    0.22360    0.73960    1.000
    C368     C        0.01440    0.25890    0.64700    1.000
    C369     C        0.01000    0.21500    0.68230    1.000
    C370     C        0.00920    0.33080    0.68680    1.000
    C371     C        0.98630    0.27900    0.67950    1.000
    C372     C        0.99170    0.26300    0.77690    1.000
    C373     C        0.01790    0.35080    0.73900    1.000
    C374     C        0.01390    0.31620    0.78350    1.000
    O69      O        0.49960    0.91240    0.65170    1.000
    O70      O        0.50380    0.84800    0.58760    1.000
    C375     C        0.50930    0.86420    0.63680    1.000
    C376     C        0.51150    0.81170    0.66720    1.000
    C377     C        0.51490    0.82110    0.72330    1.000
    C378     C        0.51250    0.72360    0.73960    1.000
    C379     C        0.51440    0.75890    0.64700    1.000
    C380     C        0.51000    0.71500    0.68230    1.000
    C381     C        0.50920    0.83080    0.68680    1.000
    C382     C        0.48630    0.77900    0.67950    1.000
    C383     C        0.49170    0.76300    0.77690    1.000
    C384     C        0.51790    0.85080    0.73900    1.000
    C385     C        0.51390    0.81620    0.78350    1.000
    O71      O        0.49960    0.41240    0.15170    1.000
    O72      O        0.50380    0.34800    0.08760    1.000
    C386     C        0.50930    0.36420    0.13680    1.000
    C387     C        0.51150    0.31170    0.16720    1.000
    C388     C        0.51490    0.32110    0.22330    1.000
    C389     C        0.51250    0.22360    0.23960    1.000
    C390     C        0.51440    0.25890    0.14700    1.000
    C391     C        0.51000    0.21500    0.18230    1.000
    C392     C        0.50920    0.33080    0.18680    1.000
    C393     C        0.48630    0.27900    0.17950    1.000
    C394     C        0.49170    0.26300    0.27690    1.000
    C395     C        0.51790    0.35080    0.23900    1.000
    C396     C        0.51390    0.31620    0.28350    1.000
    O73      O        0.00040    0.91240    0.84830    1.000
    O74      O        0.99620    0.84800    0.91240    1.000
    C397     C        0.99070    0.86420    0.86320    1.000
    C398     C        0.98850    0.81170    0.83280    1.000
    C399     C        0.98510    0.82110    0.77670    1.000
    C400     C        0.98750    0.72360    0.76040    1.000
    C401     C        0.98560    0.75890    0.85300    1.000
    C402     C        0.99000    0.71500    0.81770    1.000
    C403     C        0.99080    0.83080    0.81320    1.000
    C404     C        0.01370    0.77900    0.82050    1.000
    C405     C        0.00830    0.76300    0.72310    1.000
    C406     C        0.98210    0.85080    0.76100    1.000
    C407     C        0.98610    0.81620    0.71650    1.000
    O75      O        0.00040    0.41240    0.34830    1.000
    O76      O        0.99620    0.34800    0.41240    1.000
    C408     C        0.99070    0.36420    0.36320    1.000
    C409     C        0.98850    0.31170    0.33280    1.000
    C410     C        0.98510    0.32110    0.27670    1.000
    C411     C        0.98750    0.22360    0.26040    1.000
    C412     C        0.98560    0.25890    0.35300    1.000
    C413     C        0.99000    0.21500    0.31770    1.000
    C414     C        0.99080    0.33080    0.31320    1.000
    C415     C        0.01370    0.27900    0.32050    1.000
    C416     C        0.00830    0.26300    0.22310    1.000
    C417     C        0.98210    0.35080    0.26100    1.000
    C418     C        0.98610    0.31620    0.21650    1.000
    O77      O        0.50040    0.91240    0.34830    1.000
    O78      O        0.49620    0.84800    0.41240    1.000
    C419     C        0.49070    0.86420    0.36320    1.000
    C420     C        0.48850    0.81170    0.33280    1.000
    C421     C        0.48510    0.82110    0.27670    1.000
    C422     C        0.48750    0.72360    0.26040    1.000
    C423     C        0.48560    0.75890    0.35300    1.000
    C424     C        0.49000    0.71500    0.31770    1.000
    C425     C        0.49080    0.83080    0.31320    1.000
    C426     C        0.51370    0.77900    0.32050    1.000
    C427     C        0.50830    0.76300    0.22310    1.000
    C428     C        0.48210    0.85080    0.26100    1.000
    C429     C        0.48610    0.81620    0.21650    1.000
    O79      O        0.50040    0.41240    0.84830    1.000
    O80      O        0.49620    0.34800    0.91240    1.000
    C430     C        0.49070    0.36420    0.86320    1.000
    C431     C        0.48850    0.31170    0.83280    1.000
    C432     C        0.48510    0.32110    0.77670    1.000
    C433     C        0.48750    0.22360    0.76040    1.000
    C434     C        0.48560    0.25890    0.85300    1.000
    C435     C        0.49000    0.21500    0.81770    1.000
    C436     C        0.49080    0.33080    0.81320    1.000
    C437     C        0.51370    0.27900    0.82050    1.000
    C438     C        0.50830    0.26300    0.72310    1.000
    C439     C        0.48210    0.35080    0.76100    1.000
    C440     C        0.48610    0.31620    0.71650    1.000
    O81      O        0.99960    0.08760    0.84830    1.000
    O82      O        0.00380    0.15200    0.91240    1.000
    C441     C        0.00930    0.13580    0.86320    1.000
    C442     C        0.01150    0.18830    0.83280    1.000
    C443     C        0.01490    0.17890    0.77670    1.000
    C444     C        0.01250    0.27640    0.76040    1.000
    C445     C        0.01440    0.24110    0.85300    1.000
    C446     C        0.01000    0.28500    0.81770    1.000
    C447     C        0.00920    0.16920    0.81320    1.000
    C448     C        0.98630    0.22100    0.82050    1.000
    C449     C        0.99170    0.23700    0.72310    1.000
    C450     C        0.01790    0.14920    0.76100    1.000
    C451     C        0.01390    0.18380    0.71650    1.000
    O83      O        0.99960    0.58760    0.34830    1.000
    O84      O        0.00380    0.65200    0.41240    1.000
    C452     C        0.00930    0.63580    0.36320    1.000
    C453     C        0.01150    0.68830    0.33280    1.000
    C454     C        0.01490    0.67890    0.27670    1.000
    C455     C        0.01250    0.77640    0.26040    1.000
    C456     C        0.01440    0.74110    0.35300    1.000
    C457     C        0.01000    0.78500    0.31770    1.000
    C458     C        0.00920    0.66920    0.31320    1.000
    C459     C        0.98630    0.72100    0.32050    1.000
    C460     C        0.99170    0.73700    0.22310    1.000
    C461     C        0.01790    0.64920    0.26100    1.000
    C462     C        0.01390    0.68380    0.21650    1.000
    O85      O        0.49960    0.08760    0.34830    1.000
    O86      O        0.50380    0.15200    0.41240    1.000
    C463     C        0.50930    0.13580    0.36320    1.000
    C464     C        0.51150    0.18830    0.33280    1.000
    C465     C        0.51490    0.17890    0.27670    1.000
    C466     C        0.51250    0.27640    0.26040    1.000
    C467     C        0.51440    0.24110    0.35300    1.000
    C468     C        0.51000    0.28500    0.31770    1.000
    C469     C        0.50920    0.16920    0.31320    1.000
    C470     C        0.48630    0.22100    0.32050    1.000
    C471     C        0.49170    0.23700    0.22310    1.000
    C472     C        0.51790    0.14920    0.26100    1.000
    C473     C        0.51390    0.18380    0.21650    1.000
    O87      O        0.49960    0.58760    0.84830    1.000
    O88      O        0.50380    0.65200    0.91240    1.000
    C474     C        0.50930    0.63580    0.86320    1.000
    C475     C        0.51150    0.68830    0.83280    1.000
    C476     C        0.51490    0.67890    0.77670    1.000
    C477     C        0.51250    0.77640    0.76040    1.000
    C478     C        0.51440    0.74110    0.85300    1.000
    C479     C        0.51000    0.78500    0.81770    1.000
    C480     C        0.50920    0.66920    0.81320    1.000
    C481     C        0.48630    0.72100    0.82050    1.000
    C482     C        0.49170    0.73700    0.72310    1.000
    C483     C        0.51790    0.64920    0.76100    1.000
    C484     C        0.51390    0.68380    0.71650    1.000
    O89      O        0.00040    0.08760    0.15170    1.000
    O90      O        0.99620    0.15200    0.08760    1.000
    C485     C        0.99070    0.13580    0.13680    1.000
    C486     C        0.98850    0.18830    0.16720    1.000
    C487     C        0.98510    0.17890    0.22330    1.000
    C488     C        0.98750    0.27640    0.23960    1.000
    C489     C        0.98560    0.24110    0.14700    1.000
    C490     C        0.99000    0.28500    0.18230    1.000
    C491     C        0.99080    0.16920    0.18680    1.000
    C492     C        0.01370    0.22100    0.17950    1.000
    C493     C        0.00830    0.23700    0.27690    1.000
    C494     C        0.98210    0.14920    0.23900    1.000
    C495     C        0.98610    0.18380    0.28350    1.000
    O91      O        0.00040    0.58760    0.65170    1.000
    O92      O        0.99620    0.65200    0.58760    1.000
    C496     C        0.99070    0.63580    0.63680    1.000
    C497     C        0.98850    0.68830    0.66720    1.000
    C498     C        0.98510    0.67890    0.72330    1.000
    C499     C        0.98750    0.77640    0.73960    1.000
    C500     C        0.98560    0.74110    0.64700    1.000
    C501     C        0.99000    0.78500    0.68230    1.000
    C502     C        0.99080    0.66920    0.68680    1.000
    C503     C        0.01370    0.72100    0.67950    1.000
    C504     C        0.00830    0.73700    0.77690    1.000
    C505     C        0.98210    0.64920    0.73900    1.000
    C506     C        0.98610    0.68380    0.78350    1.000
    O93      O        0.50040    0.08760    0.65170    1.000
    O94      O        0.49620    0.15200    0.58760    1.000
    C507     C        0.49070    0.13580    0.63680    1.000
    C508     C        0.48850    0.18830    0.66720    1.000
    C509     C        0.48510    0.17890    0.72330    1.000
    C510     C        0.48750    0.27640    0.73960    1.000
    C511     C        0.48560    0.24110    0.64700    1.000
    C512     C        0.49000    0.28500    0.68230    1.000
    C513     C        0.49080    0.16920    0.68680    1.000
    C514     C        0.51370    0.22100    0.67950    1.000
    C515     C        0.50830    0.23700    0.77690    1.000
    C516     C        0.48210    0.14920    0.73900    1.000
    C517     C        0.48610    0.18380    0.78350    1.000
    O95      O        0.50040    0.58760    0.15170    1.000
    O96      O        0.49620    0.65200    0.08760    1.000
    C518     C        0.49070    0.63580    0.13680    1.000
    C519     C        0.48850    0.68830    0.16720    1.000
    C520     C        0.48510    0.67890    0.22330    1.000
    C521     C        0.48750    0.77640    0.23960    1.000
    C522     C        0.48560    0.74110    0.14700    1.000
    C523     C        0.49000    0.78500    0.18230    1.000
    C524     C        0.49080    0.66920    0.18680    1.000
    C525     C        0.51370    0.72100    0.17950    1.000
    C526     C        0.50830    0.73700    0.27690    1.000
    C527     C        0.48210    0.64920    0.23900    1.000
    C528     C        0.48610    0.68380    0.28350    1.000
    U1       U        0.11022    0.00000    0.00000    1.000
    U2       U        0.11022    0.50000    0.50000    1.000
    U3       U        0.61022    0.00000    0.50000    1.000
    U4       U        0.61022    0.50000    0.00000    1.000
    U5       U        0.88978    0.00000    0.00000    1.000
    U6       U        0.88978    0.50000    0.50000    1.000
    U7       U        0.38978    0.00000    0.50000    1.000
    U8       U        0.38978    0.50000    0.00000    1.000
    U9       U        0.00000    0.11022    0.00000    1.000
    U10      U        0.00000    0.61022    0.50000    1.000
    U11      U        0.50000    0.11022    0.50000    1.000
    U12      U        0.50000    0.61022    0.00000    1.000
    U13      U        0.00000    0.88978    0.00000    1.000
    U14      U        0.00000    0.38978    0.50000    1.000
    U15      U        0.50000    0.88978    0.50000    1.000
    U16      U        0.50000    0.38978    0.00000    1.000
    U17      U        0.00000    0.00000    0.11022    1.000
    U18      U        0.00000    0.50000    0.61022    1.000
    U19      U        0.50000    0.00000    0.61022    1.000
    U20      U        0.50000    0.50000    0.11022    1.000
    U21      U        0.00000    0.00000    0.88978    1.000
    U22      U        0.00000    0.50000    0.38978    1.000
    U23      U        0.50000    0.00000    0.38978    1.000
    U24      U        0.50000    0.50000    0.88978    1.000
    O97      O        0.04260    0.95740    0.04260    1.000
    O98      O        0.04260    0.45740    0.54260    1.000
    O99      O        0.54260    0.95740    0.54260    1.000
    O100     O        0.54260    0.45740    0.04260    1.000
    O101     O        0.95740    0.04260    0.04260    1.000
    O102     O        0.95740    0.54260    0.54260    1.000
    O103     O        0.45740    0.04260    0.54260    1.000
    O104     O        0.45740    0.54260    0.04260    1.000
    O105     O        0.95740    0.95740    0.95740    1.000
    O106     O        0.95740    0.45740    0.45740    1.000
    O107     O        0.45740    0.95740    0.45740    1.000
    O108     O        0.45740    0.45740    0.95740    1.000
    O109     O        0.04260    0.04260    0.95740    1.000
    O110     O        0.04260    0.54260    0.45740    1.000
    O111     O        0.54260    0.04260    0.45740    1.000
    O112     O        0.54260    0.54260    0.95740    1.000
    O113     O        0.05810    0.05810    0.05810    1.000
    O114     O        0.05810    0.55810    0.55810    1.000
    O115     O        0.55810    0.05810    0.55810    1.000
    O116     O        0.55810    0.55810    0.05810    1.000
    O117     O        0.94190    0.94190    0.05810    1.000
    O118     O        0.94190    0.44190    0.55810    1.000
    O119     O        0.44190    0.94190    0.55810    1.000
    O120     O        0.44190    0.44190    0.05810    1.000
    O121     O        0.94190    0.05810    0.94190    1.000
    O122     O        0.94190    0.55810    0.44190    1.000
    O123     O        0.44190    0.05810    0.44190    1.000
    O124     O        0.44190    0.55810    0.94190    1.000
    O125     O        0.05810    0.94190    0.94190    1.000
    O126     O        0.05810    0.44190    0.44190    1.000
    O127     O        0.55810    0.94190    0.44190    1.000
    O128     O        0.55810    0.44190    0.94190    1.000
