# CIF file generated by openbabel 3.1.0, see https://openbabel.org
data_I
_chemical_name_common 'FASHUD_SL'
_cell_length_a 16.139
_cell_length_b 16.139
_cell_length_c 18.247
_cell_angle_alpha 90
_cell_angle_beta 90
_cell_angle_gamma 90
_space_group_name_H-M_alt 'P 1'
_space_group_name_Hall 'P 1'
loop_
    _symmetry_equiv_pos_as_xyz
    x,y,z
loop_
    _atom_site_label
    _atom_site_type_symbol
    _atom_site_fract_x
    _atom_site_fract_y
    _atom_site_fract_z
    _atom_site_occupancy
    C1       C        0.13460    0.36790    0.73480    1.000
    C2       C        0.11230    0.39080    0.65540    1.000
    O3       O        0.68780    0.81540    0.24750    1.000
    O4       O        0.05600    0.44540    0.65090    1.000
    O5       O        0.09230    0.40840    0.78160    1.000
    O6       O        0.14830    0.35680    0.60370    1.000
    C7       C        0.63460    0.86790    0.23480    1.000
    C8       C        0.61230    0.89080    0.15540    1.000
    O9       O        0.18780    0.31540    0.74750    1.000
    O10      O        0.55600    0.94540    0.15090    1.000
    O11      O        0.59230    0.90840    0.28160    1.000
    O12      O        0.64830    0.85680    0.10370    1.000
    C13      C        0.36540    0.13210    0.23480    1.000
    C14      C        0.38770    0.10920    0.15540    1.000
    O15      O        0.81220    0.68460    0.74750    1.000
    O16      O        0.44400    0.05460    0.15090    1.000
    O17      O        0.40770    0.09160    0.28160    1.000
    O18      O        0.35170    0.14320    0.10370    1.000
    C19      C        0.86540    0.63210    0.73480    1.000
    C20      C        0.88770    0.60920    0.65540    1.000
    O21      O        0.31220    0.18460    0.24750    1.000
    O22      O        0.94400    0.55460    0.65090    1.000
    O23      O        0.90770    0.59160    0.78160    1.000
    O24      O        0.85170    0.64320    0.60370    1.000
    C25      C        0.63210    0.63460    0.98480    1.000
    C26      C        0.60920    0.61230    0.90540    1.000
    O27      O        0.18460    0.18780    0.49750    1.000
    O28      O        0.55460    0.55600    0.90090    1.000
    O29      O        0.59160    0.59230    0.03160    1.000
    O30      O        0.64320    0.64830    0.85370    1.000
    C31      C        0.13210    0.13460    0.48480    1.000
    C32      C        0.10920    0.11230    0.40540    1.000
    O33      O        0.68460    0.68780    0.99750    1.000
    O34      O        0.05460    0.05600    0.40090    1.000
    O35      O        0.09160    0.09230    0.53160    1.000
    O36      O        0.14320    0.14830    0.35370    1.000
    C37      C        0.86790    0.86540    0.48480    1.000
    C38      C        0.89080    0.88770    0.40540    1.000
    O39      O        0.31540    0.31220    0.99750    1.000
    O40      O        0.94540    0.94400    0.40090    1.000
    O41      O        0.90840    0.90770    0.53160    1.000
    O42      O        0.85680    0.85170    0.35370    1.000
    C43      C        0.36790    0.36540    0.98480    1.000
    C44      C        0.39080    0.38770    0.90540    1.000
    O45      O        0.81540    0.81220    0.49750    1.000
    O46      O        0.44540    0.44400    0.90090    1.000
    O47      O        0.40840    0.40770    0.03160    1.000
    O48      O        0.35680    0.35170    0.85370    1.000
    C49      C        0.36540    0.36790    0.51520    1.000
    C50      C        0.38770    0.39080    0.59460    1.000
    O51      O        0.81220    0.81540    0.00250    1.000
    O52      O        0.44400    0.44540    0.59910    1.000
    O53      O        0.40770    0.40840    0.46840    1.000
    O54      O        0.35170    0.35680    0.64630    1.000
    C55      C        0.86540    0.86790    0.01520    1.000
    C56      C        0.88770    0.89080    0.09460    1.000
    O57      O        0.31220    0.31540    0.50250    1.000
    O58      O        0.94400    0.94540    0.09910    1.000
    O59      O        0.90770    0.90840    0.96840    1.000
    O60      O        0.85170    0.85680    0.14630    1.000
    C61      C        0.13460    0.13210    0.01520    1.000
    C62      C        0.11230    0.10920    0.09460    1.000
    O63      O        0.68780    0.68460    0.50250    1.000
    O64      O        0.05600    0.05460    0.09910    1.000
    O65      O        0.09230    0.09160    0.96840    1.000
    O66      O        0.14830    0.14320    0.14630    1.000
    C67      C        0.63460    0.63210    0.51520    1.000
    C68      C        0.61230    0.60920    0.59460    1.000
    O69      O        0.18780    0.18460    0.00250    1.000
    O70      O        0.55600    0.55460    0.59910    1.000
    O71      O        0.59230    0.59160    0.46840    1.000
    O72      O        0.64830    0.64320    0.64630    1.000
    C73      C        0.86790    0.63460    0.26520    1.000
    C74      C        0.89080    0.61230    0.34460    1.000
    O75      O        0.31540    0.18780    0.75250    1.000
    O76      O        0.94540    0.55600    0.34910    1.000
    O77      O        0.90840    0.59230    0.21840    1.000
    O78      O        0.85680    0.64830    0.39630    1.000
    C79      C        0.36790    0.13460    0.76520    1.000
    C80      C        0.39080    0.11230    0.84460    1.000
    O81      O        0.81540    0.68780    0.25250    1.000
    O82      O        0.44540    0.05600    0.84910    1.000
    O83      O        0.40840    0.09230    0.71840    1.000
    O84      O        0.35680    0.14830    0.89630    1.000
    C85      C        0.63210    0.86540    0.76520    1.000
    C86      C        0.60920    0.88770    0.84460    1.000
    O87      O        0.18460    0.31220    0.25250    1.000
    O88      O        0.55460    0.94400    0.84910    1.000
    O89      O        0.59160    0.90770    0.71840    1.000
    O90      O        0.64320    0.85170    0.89630    1.000
    C91      C        0.13210    0.36540    0.26520    1.000
    C92      C        0.10920    0.38770    0.34460    1.000
    O93      O        0.68460    0.81220    0.75250    1.000
    O94      O        0.05460    0.44400    0.34910    1.000
    O95      O        0.09160    0.40770    0.21840    1.000
    O96      O        0.14320    0.35170    0.39630    1.000
    C97      C        0.86540    0.13210    0.51520    1.000
    C98      C        0.88770    0.10920    0.59460    1.000
    O99      O        0.31220    0.68460    0.00250    1.000
    O100     O        0.94400    0.05460    0.59910    1.000
    O101     O        0.90770    0.09160    0.46840    1.000
    O102     O        0.85170    0.14320    0.64630    1.000
    C103     C        0.36540    0.63210    0.01520    1.000
    C104     C        0.38770    0.60920    0.09460    1.000
    O105     O        0.81220    0.18460    0.50250    1.000
    O106     O        0.44400    0.55460    0.09910    1.000
    O107     O        0.40770    0.59160    0.96840    1.000
    O108     O        0.35170    0.64320    0.14630    1.000
    C109     C        0.63460    0.36790    0.01520    1.000
    C110     C        0.61230    0.39080    0.09460    1.000
    O111     O        0.18780    0.81540    0.50250    1.000
    O112     O        0.55600    0.44540    0.09910    1.000
    O113     O        0.59230    0.40840    0.96840    1.000
    O114     O        0.64830    0.35680    0.14630    1.000
    C115     C        0.13460    0.86790    0.51520    1.000
    C116     C        0.11230    0.89080    0.59460    1.000
    O117     O        0.68780    0.31540    0.00250    1.000
    O118     O        0.05600    0.94540    0.59910    1.000
    O119     O        0.09230    0.90840    0.46840    1.000
    O120     O        0.14830    0.85680    0.64630    1.000
    C121     C        0.36790    0.86540    0.26520    1.000
    C122     C        0.39080    0.88770    0.34460    1.000
    O123     O        0.81540    0.31220    0.75250    1.000
    O124     O        0.44540    0.94400    0.34910    1.000
    O125     O        0.40840    0.90770    0.21840    1.000
    O126     O        0.35680    0.85170    0.39630    1.000
    C127     C        0.86790    0.36540    0.76520    1.000
    C128     C        0.89080    0.38770    0.84460    1.000
    O129     O        0.31540    0.81220    0.25250    1.000
    O130     O        0.94540    0.44400    0.84910    1.000
    O131     O        0.90840    0.40770    0.71840    1.000
    O132     O        0.85680    0.35170    0.89630    1.000
    C133     C        0.13210    0.63460    0.76520    1.000
    C134     C        0.10920    0.61230    0.84460    1.000
    O135     O        0.68460    0.18780    0.25250    1.000
    O136     O        0.05460    0.55600    0.84910    1.000
    O137     O        0.09160    0.59230    0.71840    1.000
    O138     O        0.14320    0.64830    0.89630    1.000
    C139     C        0.63210    0.13460    0.26520    1.000
    C140     C        0.60920    0.11230    0.34460    1.000
    O141     O        0.18460    0.68780    0.75250    1.000
    O142     O        0.55460    0.05600    0.34910    1.000
    O143     O        0.59160    0.09230    0.21840    1.000
    O144     O        0.64320    0.14830    0.39630    1.000
    C145     C        0.63460    0.13210    0.73480    1.000
    C146     C        0.61230    0.10920    0.65540    1.000
    O147     O        0.18780    0.68460    0.24750    1.000
    O148     O        0.55600    0.05460    0.65090    1.000
    O149     O        0.59230    0.09160    0.78160    1.000
    O150     O        0.64830    0.14320    0.60370    1.000
    C151     C        0.13460    0.63210    0.23480    1.000
    C152     C        0.11230    0.60920    0.15540    1.000
    O153     O        0.68780    0.18460    0.74750    1.000
    O154     O        0.05600    0.55460    0.15090    1.000
    O155     O        0.09230    0.59160    0.28160    1.000
    O156     O        0.14830    0.64320    0.10370    1.000
    C157     C        0.86540    0.36790    0.23480    1.000
    C158     C        0.88770    0.39080    0.15540    1.000
    O159     O        0.31220    0.81540    0.74750    1.000
    O160     O        0.94400    0.44540    0.15090    1.000
    O161     O        0.90770    0.40840    0.28160    1.000
    O162     O        0.85170    0.35680    0.10370    1.000
    C163     C        0.36540    0.86790    0.73480    1.000
    C164     C        0.38770    0.89080    0.65540    1.000
    O165     O        0.81220    0.31540    0.24750    1.000
    O166     O        0.44400    0.94540    0.65090    1.000
    O167     O        0.40770    0.90840    0.78160    1.000
    O168     O        0.35170    0.85680    0.60370    1.000
    C169     C        0.13210    0.86540    0.98480    1.000
    C170     C        0.10920    0.88770    0.90540    1.000
    O171     O        0.68460    0.31220    0.49750    1.000
    O172     O        0.05460    0.94400    0.90090    1.000
    O173     O        0.09160    0.90770    0.03160    1.000
    O174     O        0.14320    0.85170    0.85370    1.000
    C175     C        0.63210    0.36540    0.48480    1.000
    C176     C        0.60920    0.38770    0.40540    1.000
    O177     O        0.18460    0.81220    0.99750    1.000
    O178     O        0.55460    0.44400    0.40090    1.000
    O179     O        0.59160    0.40770    0.53160    1.000
    O180     O        0.64320    0.35170    0.35370    1.000
    C181     C        0.36790    0.63460    0.48480    1.000
    C182     C        0.39080    0.61230    0.40540    1.000
    O183     O        0.81540    0.18780    0.99750    1.000
    O184     O        0.44540    0.55600    0.40090    1.000
    O185     O        0.40840    0.59230    0.53160    1.000
    O186     O        0.35680    0.64830    0.35370    1.000
    C187     C        0.86790    0.13460    0.98480    1.000
    C188     C        0.89080    0.11230    0.90540    1.000
    O189     O        0.31540    0.68780    0.49750    1.000
    O190     O        0.94540    0.05600    0.90090    1.000
    O191     O        0.90840    0.09230    0.03160    1.000
    O192     O        0.85680    0.14830    0.85370    1.000
    Sr193    Sr       0.73720    0.75000    0.37500    1.000
    Sr194    Sr       0.23720    0.25000    0.87500    1.000
    Sr195    Sr       0.76280    0.75000    0.87500    1.000
    Sr196    Sr       0.26280    0.25000    0.37500    1.000
    Sr197    Sr       0.25000    0.23720    0.62500    1.000
    Sr198    Sr       0.75000    0.73720    0.12500    1.000
    Sr199    Sr       0.25000    0.26280    0.12500    1.000
    Sr200    Sr       0.75000    0.76280    0.62500    1.000
    Sr201    Sr       0.26280    0.75000    0.87500    1.000
    Sr202    Sr       0.76280    0.25000    0.37500    1.000
    Sr203    Sr       0.23720    0.75000    0.37500    1.000
    Sr204    Sr       0.73720    0.25000    0.87500    1.000
    Sr205    Sr       0.75000    0.26280    0.62500    1.000
    Sr206    Sr       0.25000    0.76280    0.12500    1.000
    Sr207    Sr       0.75000    0.23720    0.12500    1.000
    Sr208    Sr       0.25000    0.73720    0.62500    1.000
    Zr209    Zr       0.00000    0.50000    0.75000    1.000
    Zr210    Zr       0.50000    0.00000    0.25000    1.000
    Zr211    Zr       0.50000    0.50000    0.00000    1.000
    Zr212    Zr       0.00000    0.00000    0.50000    1.000
    Zr213    Zr       0.50000    0.50000    0.50000    1.000
    Zr214    Zr       0.00000    0.00000    0.00000    1.000
    Zr215    Zr       0.00000    0.50000    0.25000    1.000
    Zr216    Zr       0.50000    0.00000    0.75000    1.000
