# CIF file generated by openbabel 3.1.0, see https://openbabel.org
data_I
_chemical_name_common 'image0'
_cell_length_a 13.2249
_cell_length_b 13.2989
_cell_length_c 20.3488
_cell_angle_alpha 81.266
_cell_angle_beta 81.426
_cell_angle_gamma 81.246
_space_group_name_H-M_alt 'P 1'
_space_group_name_Hall 'P 1'
loop_
    _symmetry_equiv_pos_as_xyz
    x,y,z
loop_
    _atom_site_label
    _atom_site_type_symbol
    _atom_site_fract_x
    _atom_site_fract_y
    _atom_site_fract_z
    _atom_site_occupancy
    Zn1      Zn       0.84308    0.73529    0.29524    1.000
    N1       N        0.73473    0.81938    0.35314    1.000
    C1       C        0.73290    0.92010    0.35484    1.000
    H1       H        0.78770    0.95360    0.32980    1.000
    C2       C        0.65380    0.97740    0.39170    1.000
    H2       H        0.65470    0.04880    0.39150    1.000
    C3       C        0.57410    0.92940    0.42871    1.000
    C4       C        0.57730    0.82490    0.42814    1.000
    H3       H        0.52430    0.78930    0.45370    1.000
    C5       C        0.65830    0.77260    0.38999    1.000
    H4       H        0.65960    0.70100    0.39000    1.000
    C6       C        0.48630    0.99160    0.46750    1.000
    H5       H        0.46860    0.05880    0.44050    1.000
    H6       H        0.42470    0.95520    0.47560    1.000
    N2       N        0.89141    0.82871    0.20965    1.000
    C7       C        0.83580    0.91490    0.18392    1.000
    H7       H        0.76840    0.93400    0.20570    1.000
    C8       C        0.87230    0.97760    0.12689    1.000
    H8       H        0.83070    0.03830    0.11060    1.000
    C9       C        0.97010    0.95050    0.09411    1.000
    C10      C        0.02770    0.86100    0.12057    1.000
    H9       H        0.09500    0.83990    0.09940    1.000
    C11      C        0.98680    0.80290    0.17759    1.000
    H10      H        0.02740    0.74230    0.19500    1.000
    C12      C        0.01310    0.01640    0.03211    1.000
    H11      H        0.08900    0.01070    0.03030    1.000
    H12      H        0.98430    0.08910    0.03460    1.000
    N3       N        0.75640    0.64310    0.26369    1.000
    C13      C        0.74330    0.54960    0.29787    1.000
    H13      H        0.77870    0.52550    0.33580    1.000
    C14      C        0.68020    0.48800    0.27931    1.000
    H14      H        0.67400    0.42200    0.30380    1.000
    C15      C        0.62590    0.52180    0.22509    1.000
    C16      C        0.63990    0.61890    0.19016    1.000
    H15      H        0.60440    0.64540    0.15270    1.000
    C17      C        0.70510    0.67550    0.21032    1.000
    H16      H        0.71450    0.74070    0.18550    1.000
    C18      C        0.55590    0.45610    0.20480    1.000
    H17      H        0.48590    0.49500    0.20400    1.000
    H18      H        0.55080    0.39450    0.23860    1.000
    Zn2      Zn       0.29404    0.17530    0.03335    1.000
    N4       N        0.40112    0.24010    0.06589    1.000
    C19      C        0.40270    0.23920    0.13173    1.000
    H19      H        0.35860    0.19900    0.16250    1.000
    C20      C        0.46520    0.29390    0.15661    1.000
    H20      H        0.46550    0.28900    0.20360    1.000
    C21      C        0.52820    0.35660    0.11285    1.000
    C22      C        0.52890    0.35380    0.04470    1.000
    H21      H        0.57300    0.39250    0.01280    1.000
    C23      C        0.46670    0.29590    0.02335    1.000
    H22      H        0.46950    0.29470    0.97650    1.000
    C24      C        0.59470    0.42260    0.13605    1.000
    H23      H        0.60010    0.48470    0.10270    1.000
    H24      H        0.66490    0.38440    0.13720    1.000
    N5       N        0.21170    0.10950    0.11876    1.000
    C25      C        0.24740    0.01550    0.14729    1.000
    H25      H        0.31220    0.98320    0.12860    1.000
    C26      C        0.19460    0.96390    0.20240    1.000
    H26      H        0.22380    0.89830    0.22170    1.000
    C27      C        0.09970    0.00740    0.22945    1.000
    C28      C        0.06210    0.10490    0.20083    1.000
    H27      H        0.99740    0.13820    0.21880    1.000
    C29      C        0.11960    0.15320    0.14592    1.000
    H28      H        0.09290    0.21980    0.12670    1.000
    C30      C        0.03910    0.95280    0.28900    1.000
    H29      H        0.05650    0.87770    0.28900    1.000
    H30      H        0.96450    0.97110    0.28570    1.000
    N6       N        0.86280    0.85952    0.52516    1.000
    C31      C        0.94400    0.80020    0.49663    1.000
    H31      H        0.95690    0.73020    0.51520    1.000
    C32      C        0.00950    0.83640    0.44151    1.000
    H32      H        0.06600    0.79190    0.42280    1.000
    C33      C        0.99170    0.93870    0.41383    1.000
    C34      C        0.90670    0.99900    0.44204    1.000
    H33      H        0.89060    0.06850    0.42330    1.000
    C35      C        0.84510    0.95810    0.49741    1.000
    H34      H        0.78800    0.00120    0.51670    1.000
    C36      C        0.06260    0.98150    0.35438    1.000
    H35      H        0.13510    0.95470    0.36060    1.000
    H36      H        0.05460    0.05720    0.35180    1.000
    N7       N        0.19449    0.29569    0.99581    1.000
    C37      C        0.21370    0.39360    0.98905    1.000
    H37      H        0.27060    0.40770    0.00800    1.000
    C38      C        0.15430    0.47430    0.95583    1.000
    H38      H        0.17120    0.54210    0.95150    1.000
    C39      C        0.06960    0.45550    0.92873    1.000
    C40      C        0.04700    0.35570    0.93854    1.000
    H39      H        0.98790    0.34020    0.92270    1.000
    C41      C        0.11080    0.27840    0.97153    1.000
    H40      H        0.09460    0.21020    0.97720    1.000
    C42      C        0.00740    0.53820    0.88697    1.000
    H41      H        0.01460    0.60640    0.89820    1.000
    H42      H        0.93350    0.52890    0.89640    1.000
    Zn3      Zn       0.76753    0.81168    0.60981    1.000
    N8       N        0.86130    0.72516    0.67345    1.000
    C43      C        0.96410    0.72420    0.66653    1.000
    H43      H        0.99580    0.76630    0.62960    1.000
    C44      C        0.02570    0.66450    0.71097    1.000
    H44      H        0.09800    0.66650    0.70460    1.000
    C45      C        0.98130    0.60170    0.76490    1.000
    C46      C        0.87510    0.60290    0.77129    1.000
    H45      H        0.84150    0.56080    0.80730    1.000
    C47      C        0.81810    0.66480    0.72552    1.000
    H46      H        0.74550    0.66470    0.73110    1.000
    C48      C        0.04600    0.53220    0.81274    1.000
    H47      H        0.11730    0.54960    0.80320    1.000
    H48      H        0.04850    0.46050    0.80410    1.000
    N9       N        0.68345    0.71200    0.58438    1.000
    C49      C        0.72760    0.64310    0.54251    1.000
    H49      H        0.79730    0.64560    0.52330    1.000
    C50      C        0.67620    0.56970    0.52667    1.000
    H50      H        0.71080    0.52220    0.49770    1.000
    C51      C        0.57320    0.56470    0.55305    1.000
    C52      C        0.52720    0.63790    0.59465    1.000
    H51      H        0.45660    0.63900    0.61260    1.000
    C53      C        0.58330    0.70830    0.60983    1.000
    H52      H        0.55060    0.75610    0.63920    1.000
    C54      C        0.51450    0.48590    0.53599    1.000
    H53      H        0.45090    0.48150    0.56820    1.000
    H54      H        0.55710    0.41790    0.53990    1.000
    Zn4      Zn       0.15692    0.26471    0.70476    1.000
    N10      N        0.26527    0.18062    0.64686    1.000
    C55      C        0.26710    0.07990    0.64516    1.000
    H55      H        0.21230    0.04640    0.67020    1.000
    C56      C        0.34620    0.02260    0.60830    1.000
    H56      H        0.34530    0.95120    0.60850    1.000
    C57      C        0.42590    0.07060    0.57129    1.000
    C58      C        0.42270    0.17510    0.57186    1.000
    H57      H        0.47570    0.21070    0.54630    1.000
    C59      C        0.34170    0.22740    0.61001    1.000
    H58      H        0.34040    0.29900    0.61000    1.000
    C60      C        0.51370    0.00840    0.53250    1.000
    H59      H        0.53140    0.94120    0.55950    1.000
    H60      H        0.57530    0.04480    0.52440    1.000
    N11      N        0.10859    0.17129    0.79035    1.000
    C61      C        0.16420    0.08510    0.81608    1.000
    H61      H        0.23160    0.06600    0.79430    1.000
    C62      C        0.12770    0.02240    0.87311    1.000
    H62      H        0.16930    0.96170    0.88940    1.000
    C63      C        0.02990    0.04950    0.90589    1.000
    C64      C        0.97230    0.13900    0.87943    1.000
    H63      H        0.90500    0.16010    0.90060    1.000
    C65      C        0.01320    0.19710    0.82241    1.000
    H64      H        0.97260    0.25770    0.80500    1.000
    C66      C        0.98690    0.98360    0.96789    1.000
    H65      H        0.91100    0.98930    0.96970    1.000
    H66      H        0.01570    0.91090    0.96540    1.000
    N12      N        0.24360    0.35690    0.73631    1.000
    C67      C        0.25670    0.45040    0.70213    1.000
    H67      H        0.22130    0.47450    0.66420    1.000
    C68      C        0.31980    0.51200    0.72069    1.000
    H68      H        0.32600    0.57800    0.69620    1.000
    C69      C        0.37410    0.47820    0.77491    1.000
    C70      C        0.36010    0.38110    0.80984    1.000
    H69      H        0.39560    0.35460    0.84730    1.000
    C71      C        0.29490    0.32450    0.78968    1.000
    H70      H        0.28550    0.25930    0.81450    1.000
    C72      C        0.44410    0.54390    0.79520    1.000
    H71      H        0.51410    0.50500    0.79600    1.000
    H72      H        0.44920    0.60550    0.76140    1.000
    Zn5      Zn       0.70596    0.82470    0.96664    1.000
    N13      N        0.59888    0.75990    0.93411    1.000
    C73      C        0.59730    0.76080    0.86827    1.000
    H73      H        0.64140    0.80100    0.83750    1.000
    C74      C        0.53480    0.70610    0.84339    1.000
    H74      H        0.53450    0.71100    0.79640    1.000
    C75      C        0.47180    0.64340    0.88715    1.000
    C76      C        0.47110    0.64620    0.95530    1.000
    H75      H        0.42700    0.60750    0.98720    1.000
    C77      C        0.53330    0.70410    0.97665    1.000
    H76      H        0.53050    0.70530    0.02350    1.000
    C78      C        0.40530    0.57740    0.86395    1.000
    H77      H        0.39990    0.51530    0.89730    1.000
    H78      H        0.33510    0.61560    0.86280    1.000
    N14      N        0.78830    0.89050    0.88124    1.000
    C79      C        0.75260    0.98450    0.85271    1.000
    H79      H        0.68780    0.01680    0.87140    1.000
    C80      C        0.80540    0.03610    0.79760    1.000
    H80      H        0.77620    0.10170    0.77830    1.000
    C81      C        0.90030    0.99260    0.77055    1.000
    C82      C        0.93790    0.89510    0.79917    1.000
    H81      H        0.00260    0.86180    0.78120    1.000
    C83      C        0.88040    0.84680    0.85408    1.000
    H82      H        0.90710    0.78020    0.87330    1.000
    C84      C        0.96090    0.04720    0.71100    1.000
    H83      H        0.94350    0.12230    0.71100    1.000
    H84      H        0.03550    0.02890    0.71430    1.000
    N15      N        0.13720    0.14048    0.47484    1.000
    C85      C        0.05600    0.19980    0.50337    1.000
    H85      H        0.04310    0.26980    0.48480    1.000
    C86      C        0.99050    0.16360    0.55849    1.000
    H86      H        0.93400    0.20810    0.57720    1.000
    C87      C        0.00830    0.06130    0.58617    1.000
    C88      C        0.09330    0.00100    0.55796    1.000
    H87      H        0.10940    0.93150    0.57670    1.000
    C89      C        0.15490    0.04190    0.50259    1.000
    H88      H        0.21200    0.99880    0.48330    1.000
    C90      C        0.93740    0.01850    0.64562    1.000
    H89      H        0.86490    0.04530    0.63940    1.000
    H90      H        0.94540    0.94280    0.64820    1.000
    N16      N        0.80551    0.70431    0.00419    1.000
    C91      C        0.78630    0.60640    0.01095    1.000
    H91      H        0.72940    0.59230    0.99200    1.000
    C92      C        0.84570    0.52570    0.04417    1.000
    H92      H        0.82880    0.45790    0.04850    1.000
    C93      C        0.93040    0.54450    0.07127    1.000
    C94      C        0.95300    0.64430    0.06146    1.000
    H93      H        0.01210    0.65980    0.07730    1.000
    C95      C        0.88920    0.72160    0.02847    1.000
    H94      H        0.90540    0.78980    0.02280    1.000
    C96      C        0.99260    0.46180    0.11303    1.000
    H95      H        0.98540    0.39360    0.10180    1.000
    H96      H        0.06650    0.47110    0.10360    1.000
    Zn6      Zn       0.23247    0.18832    0.39019    1.000
    N17      N        0.13870    0.27484    0.32655    1.000
    C97      C        0.03590    0.27580    0.33347    1.000
    H97      H        0.00420    0.23370    0.37040    1.000
    C98      C        0.97430    0.33550    0.28903    1.000
    H98      H        0.90200    0.33350    0.29540    1.000
    C99      C        0.01870    0.39830    0.23510    1.000
    C100     C        0.12490    0.39710    0.22871    1.000
    H99      H        0.15850    0.43920    0.19270    1.000
    C101     C        0.18190    0.33520    0.27448    1.000
    H100     H        0.25450    0.33530    0.26890    1.000
    C102     C        0.95400    0.46780    0.18726    1.000
    H101     H        0.88270    0.45040    0.19680    1.000
    H102     H        0.95150    0.53950    0.19590    1.000
    N18      N        0.31655    0.28800    0.41562    1.000
    C103     C        0.27240    0.35690    0.45749    1.000
    H103     H        0.20270    0.35440    0.47670    1.000
    C104     C        0.32380    0.43030    0.47333    1.000
    H104     H        0.28920    0.47780    0.50230    1.000
    C105     C        0.42680    0.43530    0.44695    1.000
    C106     C        0.47280    0.36210    0.40535    1.000
    H105     H        0.54340    0.36100    0.38740    1.000
    C107     C        0.41670    0.29170    0.39017    1.000
    H106     H        0.44940    0.24390    0.36080    1.000
    C108     C        0.48550    0.51410    0.46401    1.000
    H107     H        0.54910    0.51850    0.43180    1.000
    H108     H        0.44290    0.58210    0.46010    1.000
