# CIF file generated by openbabel 3.1.0, see https://openbabel.org
data_I
_chemical_name_common 'image0'
_cell_length_a 15.425
_cell_length_b 12.1842
_cell_length_c 16.059
_cell_angle_alpha 90
_cell_angle_beta 90
_cell_angle_gamma 90
_space_group_name_H-M_alt 'P 1'
_space_group_name_Hall 'P 1'
loop_
    _symmetry_equiv_pos_as_xyz
    x,y,z
loop_
    _atom_site_label
    _atom_site_type_symbol
    _atom_site_fract_x
    _atom_site_fract_y
    _atom_site_fract_z
    _atom_site_occupancy
    Li1      Li       0.09035    0.48739    0.41352    1.000
    O1       O        0.10620    0.38990    0.31810    1.000
    C1       C        0.14550    0.37930    0.17760    1.000
    C2       C        0.14440    0.43020    0.26530    1.000
    C3       C        0.20250    0.36820    0.03830    1.000
    C4       C        0.14660    0.28170    0.02190    1.000
    H1       H        0.14700    0.24950    0.96940    1.000
    C5       C        0.09080    0.29090    0.16090    1.000
    H2       H        0.05450    0.26400    0.20240    1.000
    O2       O        0.18630    0.52270    0.26840    1.000
    C6       C        0.19980    0.41890    0.11640    1.000
    H3       H        0.23490    0.47940    0.12710    1.000
    C7       C        0.03030    0.15070    0.06180    1.000
    O3       O        0.02200    0.12280    0.98670    1.000
    O4       O        0.98850    0.10590    0.12050    1.000
    C8       C        0.26670    0.41130    0.97490    1.000
    O5       O        0.31370    0.48160    0.99010    1.000
    O6       O        0.29090    0.32940    0.92190    1.000
    O7       O        0.24290    0.38950    0.89340    1.000
    C9       C        0.09030    0.24230    0.08180    1.000
    Co1      Co       0.09035    0.01261    0.91352    1.000
    Li2      Li       0.40965    0.51261    0.91352    1.000
    O8       O        0.39380    0.61010    0.81810    1.000
    C10      C        0.35450    0.62070    0.67760    1.000
    C11      C        0.35560    0.56980    0.76530    1.000
    C12      C        0.29750    0.63180    0.53830    1.000
    C13      C        0.35340    0.71830    0.52190    1.000
    H4       H        0.35300    0.75050    0.46940    1.000
    C14      C        0.40920    0.70910    0.66090    1.000
    H5       H        0.44550    0.73600    0.70240    1.000
    O9       O        0.31370    0.47730    0.76840    1.000
    C15      C        0.30020    0.58110    0.61640    1.000
    H6       H        0.26510    0.52060    0.62710    1.000
    C16      C        0.46970    0.84930    0.56180    1.000
    O10      O        0.47800    0.87720    0.48670    1.000
    O11      O        0.51150    0.89410    0.62050    1.000
    C17      C        0.23330    0.58870    0.47490    1.000
    O12      O        0.18630    0.51840    0.49010    1.000
    O13      O        0.20910    0.67060    0.42190    1.000
    O14      O        0.25710    0.61050    0.39340    1.000
    C18      C        0.40970    0.75770    0.58180    1.000
    Co2      Co       0.40965    0.98739    0.41352    1.000
    Li3      Li       0.90965    0.98739    0.08648    1.000
    O15      O        0.89380    0.88990    0.18190    1.000
    C19      C        0.85450    0.87930    0.32240    1.000
    C20      C        0.85560    0.93020    0.23470    1.000
    C21      C        0.79750    0.86820    0.46170    1.000
    C22      C        0.85340    0.78170    0.47810    1.000
    H7       H        0.85300    0.74950    0.53060    1.000
    C23      C        0.90920    0.79090    0.33910    1.000
    H8       H        0.94550    0.76400    0.29760    1.000
    O16      O        0.81370    0.02270    0.23160    1.000
    C24      C        0.80020    0.91890    0.38360    1.000
    H9       H        0.76510    0.97940    0.37290    1.000
    C25      C        0.96970    0.65070    0.43820    1.000
    O17      O        0.97800    0.62280    0.51330    1.000
    O18      O        0.01150    0.60590    0.37950    1.000
    C26      C        0.73330    0.91130    0.52510    1.000
    O19      O        0.68630    0.98160    0.50990    1.000
    O20      O        0.70910    0.82940    0.57810    1.000
    O21      O        0.75710    0.88950    0.60660    1.000
    C27      C        0.90970    0.74230    0.41820    1.000
    Co3      Co       0.90965    0.51261    0.58648    1.000
    Li4      Li       0.59035    0.01261    0.58648    1.000
    O22      O        0.60620    0.11010    0.68190    1.000
    C28      C        0.64550    0.12070    0.82240    1.000
    C29      C        0.64440    0.06980    0.73470    1.000
    C30      C        0.70250    0.13180    0.96170    1.000
    C31      C        0.64660    0.21830    0.97810    1.000
    H10      H        0.64700    0.25050    0.03060    1.000
    C32      C        0.59080    0.20910    0.83910    1.000
    H11      H        0.55450    0.23600    0.79760    1.000
    O23      O        0.68630    0.97730    0.73160    1.000
    C33      C        0.69980    0.08110    0.88360    1.000
    H12      H        0.73490    0.02060    0.87290    1.000
    C34      C        0.53030    0.34930    0.93820    1.000
    O24      O        0.52200    0.37720    0.01330    1.000
    O25      O        0.48850    0.39410    0.87950    1.000
    C35      C        0.76670    0.08870    0.02510    1.000
    O26      O        0.81370    0.01840    0.00990    1.000
    O27      O        0.79090    0.17060    0.07810    1.000
    O28      O        0.74290    0.11050    0.10660    1.000
    C36      C        0.59030    0.25770    0.91820    1.000
    Co4      Co       0.59035    0.48739    0.08648    1.000
    O29      O        0.89380    0.61010    0.68190    1.000
    C37      C        0.85450    0.62070    0.82240    1.000
    C38      C        0.85560    0.56980    0.73470    1.000
    C39      C        0.79750    0.63180    0.96170    1.000
    C40      C        0.85340    0.71830    0.97810    1.000
    H13      H        0.85300    0.75050    0.03060    1.000
    C41      C        0.90920    0.70910    0.83910    1.000
    H14      H        0.94550    0.73600    0.79760    1.000
    O30      O        0.81370    0.47730    0.73160    1.000
    C42      C        0.80020    0.58110    0.88360    1.000
    H15      H        0.76510    0.52060    0.87290    1.000
    C43      C        0.96970    0.84930    0.93820    1.000
    O31      O        0.97800    0.87720    0.01330    1.000
    O32      O        0.01150    0.89410    0.87950    1.000
    C44      C        0.73330    0.58870    0.02510    1.000
    O33      O        0.68630    0.51840    0.00990    1.000
    O34      O        0.70910    0.67060    0.07810    1.000
    O35      O        0.75710    0.61050    0.10660    1.000
    C45      C        0.90970    0.75770    0.91820    1.000
    O36      O        0.60620    0.38990    0.18190    1.000
    C46      C        0.64550    0.37930    0.32240    1.000
    C47      C        0.64440    0.43020    0.23470    1.000
    C48      C        0.70250    0.36820    0.46170    1.000
    C49      C        0.64660    0.28170    0.47810    1.000
    H16      H        0.64700    0.24950    0.53060    1.000
    C50      C        0.59080    0.29090    0.33910    1.000
    H17      H        0.55450    0.26400    0.29760    1.000
    O37      O        0.68630    0.52270    0.23160    1.000
    C51      C        0.69980    0.41890    0.38360    1.000
    H18      H        0.73490    0.47940    0.37290    1.000
    C52      C        0.53030    0.15070    0.43820    1.000
    O38      O        0.52200    0.12280    0.51330    1.000
    O39      O        0.48850    0.10590    0.37950    1.000
    C53      C        0.76670    0.41130    0.52510    1.000
    O40      O        0.81370    0.48160    0.50990    1.000
    O41      O        0.79090    0.32940    0.57810    1.000
    O42      O        0.74290    0.38950    0.60660    1.000
    C54      C        0.59030    0.24230    0.41820    1.000
    O43      O        0.10620    0.11010    0.81810    1.000
    C55      C        0.14550    0.12070    0.67760    1.000
    C56      C        0.14440    0.06980    0.76530    1.000
    C57      C        0.20250    0.13180    0.53830    1.000
    C58      C        0.14660    0.21830    0.52190    1.000
    H19      H        0.14700    0.25050    0.46940    1.000
    C59      C        0.09080    0.20910    0.66090    1.000
    H20      H        0.05450    0.23600    0.70240    1.000
    O44      O        0.18630    0.97730    0.76840    1.000
    C60      C        0.19980    0.08110    0.61640    1.000
    H21      H        0.23490    0.02060    0.62710    1.000
    C61      C        0.03030    0.34930    0.56180    1.000
    O45      O        0.02200    0.37720    0.48670    1.000
    O46      O        0.98850    0.39410    0.62050    1.000
    C62      C        0.26670    0.08870    0.47490    1.000
    O47      O        0.31370    0.01840    0.49010    1.000
    O48      O        0.29090    0.17060    0.42190    1.000
    O49      O        0.24290    0.11050    0.39340    1.000
    C63      C        0.09030    0.25770    0.58180    1.000
    O50      O        0.39380    0.88990    0.31810    1.000
    C64      C        0.35450    0.87930    0.17760    1.000
    C65      C        0.35560    0.93020    0.26530    1.000
    C66      C        0.29750    0.86820    0.03830    1.000
    C67      C        0.35340    0.78170    0.02190    1.000
    H22      H        0.35300    0.74950    0.96940    1.000
    C68      C        0.40920    0.79090    0.16090    1.000
    H23      H        0.44550    0.76400    0.20240    1.000
    O51      O        0.31370    0.02270    0.26840    1.000
    C69      C        0.30020    0.91890    0.11640    1.000
    H24      H        0.26510    0.97940    0.12710    1.000
    C70      C        0.46970    0.65070    0.06180    1.000
    O52      O        0.47800    0.62280    0.98670    1.000
    O53      O        0.51150    0.60590    0.12050    1.000
    C71      C        0.23330    0.91130    0.97490    1.000
    O54      O        0.18630    0.98160    0.99010    1.000
    O55      O        0.20910    0.82940    0.92190    1.000
    O56      O        0.25710    0.88950    0.89340    1.000
    C72      C        0.40970    0.74230    0.08180    1.000
