# CIF file generated by openbabel 3.1.0, see https://openbabel.org
data_I
_chemical_name_common 'image0'
_cell_length_a 9.691
_cell_length_b 14.157
_cell_length_c 16.055
_cell_angle_alpha 107.408
_cell_angle_beta 99.937
_cell_angle_gamma 104.264
_space_group_name_H-M_alt 'P 1'
_space_group_name_Hall 'P 1'
loop_
    _symmetry_equiv_pos_as_xyz
    x,y,z
loop_
    _atom_site_label
    _atom_site_type_symbol
    _atom_site_fract_x
    _atom_site_fract_y
    _atom_site_fract_z
    _atom_site_occupancy
    Zn1      Zn       0.80800    0.90897    0.93976    1.000
    S1       S        0.98870    0.48582    0.70239    1.000
    O1       O        0.94870    0.85580    0.87650    1.000
    O2       O        0.17450    0.95560    0.96440    1.000
    O3       O        0.59750    0.83500    0.91660    1.000
    O4       O        0.57070    0.70760    0.78870    1.000
    O5       O        0.07610    0.41710    0.69370    1.000
    O6       O        0.87920    0.46260    0.75060    1.000
    O7       O        0.92470    0.49460    0.61750    1.000
    N1       N        0.95630    0.75860    0.11520    1.000
    N2       N        0.91340    0.82740    0.17450    1.000
    N3       N        0.87310    0.84660    0.04010    1.000
    N4       N        0.73730    0.01200    0.71800    1.000
    N5       N        0.65770    0.06160    0.76600    1.000
    N6       N        0.75890    0.97440    0.83980    1.000
    C1       C        0.01250    0.59220    0.06730    1.000
    C2       C        0.13150    0.58480    0.03240    1.000
    C3       C        0.11860    0.48960    0.96500    1.000
    C4       C        0.02660    0.68970    0.14530    1.000
    H1       H        0.98140    0.66950    0.18940    1.000
    H2       H        0.13040    0.72740    0.17480    1.000
    C5       C        0.27210    0.67700    0.06310    1.000
    H3       H        0.32750    0.68550    0.12200    1.000
    H4       H        0.24710    0.73920    0.06590    1.000
    H5       H        0.33050    0.66460    0.02090    1.000
    C6       C        0.25160    0.47810    0.93080    1.000
    H6       H        0.29870    0.54050    0.92110    1.000
    H7       H        0.22060    0.41970    0.87480    1.000
    H8       H        0.31990    0.46680    0.97480    1.000
    C7       C        0.86420    0.87770    0.12580    1.000
    H9       H        0.82600    0.93110    0.14900    1.000
    C8       C        0.93360    0.77180    0.03690    1.000
    H10      H        0.95680    0.73370    0.98620    1.000
    C9       C        0.62310    0.01320    0.56680    1.000
    C10      C        0.52710    0.91290    0.51430    1.000
    C11      C        0.40470    0.89940    0.44580    1.000
    C12      C        0.76230    0.02560    0.63400    1.000
    H11      H        0.80750    0.97500    0.60570    1.000
    H12      H        0.83130    0.09460    0.64910    1.000
    C13      C        0.55230    0.81800    0.53120    1.000
    H13      H        0.50010    0.80260    0.57370    1.000
    H14      H        0.65600    0.83180    0.55540    1.000
    H15      H        0.51680    0.75930    0.47520    1.000
    C14      C        0.30800    0.78950    0.38580    1.000
    H16      H        0.35570    0.76050    0.34140    1.000
    H17      H        0.21450    0.79130    0.35580    1.000
    H18      H        0.29250    0.74700    0.42220    1.000
    C15      C        0.67270    0.03600    0.83750    1.000
    H19      H        0.62800    0.05820    0.88330    1.000
    C16      C        0.79610    0.96130    0.76290    1.000
    H20      H        0.85580    0.92170    0.74320    1.000
    C17      C        0.14730    0.79050    0.85920    1.000
    C18      C        0.29860    0.81140    0.87200    1.000
    H21      H        0.36210    0.87790    0.90790    1.000
    C19      C        0.35590    0.73470    0.83210    1.000
    C20      C        0.26160    0.63500    0.77960    1.000
    H22      H        0.29920    0.58300    0.75180    1.000
    C21      C        0.11140    0.61370    0.76900    1.000
    C22      C        0.05370    0.69110    0.80680    1.000
    H23      H        0.95200    0.67640    0.79700    1.000
    C23      C        0.08590    0.87440    0.90360    1.000
    C24      C        0.52080    0.75940    0.84540    1.000
    Zn2      Zn       0.19200    0.09103    0.06024    1.000
    S2       S        0.01130    0.51418    0.29761    1.000
    O8       O        0.05130    0.14420    0.12350    1.000
    O9       O        0.82550    0.04440    0.03560    1.000
    O10      O        0.40250    0.16500    0.08340    1.000
    O11      O        0.42930    0.29240    0.21130    1.000
    O12      O        0.92390    0.58290    0.30630    1.000
    O13      O        0.12080    0.53740    0.24940    1.000
    O14      O        0.07530    0.50540    0.38250    1.000
    N7       N        0.04370    0.24140    0.88480    1.000
    N8       N        0.08660    0.17260    0.82550    1.000
    N9       N        0.12690    0.15340    0.95990    1.000
    N10      N        0.26270    0.98800    0.28200    1.000
    N11      N        0.34230    0.93840    0.23400    1.000
    N12      N        0.24110    0.02560    0.16020    1.000
    C25      C        0.98750    0.40780    0.93270    1.000
    C26      C        0.86850    0.41520    0.96760    1.000
    C27      C        0.88140    0.51040    0.03500    1.000
    C28      C        0.97340    0.31030    0.85470    1.000
    H24      H        0.01860    0.33050    0.81060    1.000
    H25      H        0.86960    0.27260    0.82520    1.000
    C29      C        0.72790    0.32300    0.93690    1.000
    H26      H        0.67250    0.31450    0.87800    1.000
    H27      H        0.75290    0.26080    0.93410    1.000
    H28      H        0.66950    0.33540    0.97910    1.000
    C30      C        0.74840    0.52190    0.06920    1.000
    H29      H        0.70130    0.45950    0.07890    1.000
    H30      H        0.77940    0.58030    0.12520    1.000
    H31      H        0.68010    0.53320    0.02520    1.000
    C31      C        0.13580    0.12230    0.87420    1.000
    H32      H        0.17400    0.06890    0.85100    1.000
    C32      C        0.06640    0.22820    0.96310    1.000
    H33      H        0.04320    0.26630    0.01380    1.000
    C33      C        0.37690    0.98680    0.43320    1.000
    C34      C        0.47290    0.08710    0.48570    1.000
    C35      C        0.59530    0.10060    0.55420    1.000
    C36      C        0.23770    0.97440    0.36600    1.000
    H34      H        0.19250    0.02500    0.39430    1.000
    H35      H        0.16870    0.90540    0.35090    1.000
    C37      C        0.44770    0.18200    0.46880    1.000
    H36      H        0.49990    0.19740    0.42630    1.000
    H37      H        0.34400    0.16820    0.44460    1.000
    H38      H        0.48320    0.24070    0.52480    1.000
    C38      C        0.69200    0.21050    0.61420    1.000
    H39      H        0.64430    0.23950    0.65860    1.000
    H40      H        0.78550    0.20870    0.64420    1.000
    H41      H        0.70750    0.25300    0.57780    1.000
    C39      C        0.32730    0.96400    0.16250    1.000
    H42      H        0.37200    0.94180    0.11670    1.000
    C40      C        0.20390    0.03870    0.23710    1.000
    H43      H        0.14420    0.07830    0.25680    1.000
    C41      C        0.85270    0.20950    0.14080    1.000
    C42      C        0.70140    0.18860    0.12800    1.000
    H44      H        0.63790    0.12210    0.09210    1.000
    C43      C        0.64410    0.26530    0.16790    1.000
    C44      C        0.73840    0.36500    0.22040    1.000
    H45      H        0.70080    0.41700    0.24820    1.000
    C45      C        0.88860    0.38630    0.23100    1.000
    C46      C        0.94630    0.30890    0.19320    1.000
    H46      H        0.04800    0.32360    0.20300    1.000
    C47      C        0.91410    0.12560    0.09640    1.000
    C48      C        0.47920    0.24060    0.15460    1.000
