# CIF file generated by openbabel 3.1.0, see https://openbabel.org
data_I
_chemical_name_common 'image0'
_cell_length_a 36.015
_cell_length_b 14.7774
_cell_length_c 31.248
_cell_angle_alpha 90
_cell_angle_beta 102.216
_cell_angle_gamma 90
_space_group_name_H-M_alt 'P 1'
_space_group_name_Hall 'P 1'
loop_
    _symmetry_equiv_pos_as_xyz
    x,y,z
loop_
    _atom_site_label
    _atom_site_type_symbol
    _atom_site_fract_x
    _atom_site_fract_y
    _atom_site_fract_z
    _atom_site_occupancy
    C1       C        0.25670    0.09620    0.19843    1.000
    N1       N        0.26305    0.18419    0.19209    1.000
    C2       C        0.29324    0.21900    0.21962    1.000
    N2       N        0.31713    0.17242    0.24984    1.000
    C3       C        0.30734    0.08610    0.25425    1.000
    N3       N        0.27701    0.04480    0.23037    1.000
    C4       C        0.22453    0.05150    0.16848    1.000
    C5       C        0.21475    0.96260    0.17611    1.000
    H1       H        0.22860    0.93030    0.20060    1.000
    C6       C        0.18496    0.92210    0.14799    1.000
    H2       H        0.17840    0.86160    0.15370    1.000
    N4       N        0.16469    0.96491    0.11268    1.000
    C7       C        0.17417    0.05090    0.10527    1.000
    H3       H        0.16000    0.08160    0.08040    1.000
    C8       C        0.20362    0.09640    0.13225    1.000
    H4       H        0.20940    0.15710    0.12610    1.000
    C9       C        0.30055    0.31760    0.21853    1.000
    C10      C        0.27278    0.37790    0.19879    1.000
    H5       H        0.24850    0.35660    0.18410    1.000
    C11      C        0.28079    0.46940    0.20064    1.000
    H6       H        0.26150    0.51040    0.18730    1.000
    N5       N        0.31472    0.50275    0.22043    1.000
    C12      C        0.34158    0.44390    0.23936    1.000
    H7       H        0.36570    0.46690    0.25350    1.000
    C13      C        0.33581    0.35170    0.23927    1.000
    H8       H        0.35550    0.31210    0.25310    1.000
    C14      C        0.33317    0.03420    0.28945    1.000
    C15      C        0.36452    0.07620    0.31421    1.000
    H9       H        0.37000    0.13750    0.30890    1.000
    C16      C        0.38790    0.02790    0.34680    1.000
    H10      H        0.40980    0.05700    0.36340    1.000
    N6       N        0.38122    0.94209    0.35611    1.000
    C17      C        0.35035    0.90160    0.33257    1.000
    H11      H        0.34520    0.84080    0.33930    1.000
    C18      C        0.32553    0.94460    0.29872    1.000
    H12      H        0.30400    0.91390    0.28230    1.000
    C19      C        0.98311    0.16770    0.06380    1.000
    N7       N        0.96287    0.15410    0.09450    1.000
    C20      C        0.93421    0.21210    0.09265    1.000
    N8       N        0.92641    0.28275    0.06537    1.000
    C21      C        0.94881    0.28970    0.03684    1.000
    N9       N        0.97670    0.23230    0.03341    1.000
    C22      C        0.01569    0.10660    0.06440    1.000
    C23      C        0.02915    0.09100    0.02687    1.000
    H13      H        0.01740    0.11900    0.00000    1.000
    C24      C        0.05988    0.03460    0.02880    1.000
    H14      H        0.06880    0.02340    0.00280    1.000
    N10      N        0.07771    0.99475    0.06605    1.000
    C25      C        0.06484    0.01190    0.10262    1.000
    H15      H        0.07770    0.98520    0.12930    1.000
    C26      C        0.03399    0.06600    0.10311    1.000
    H16      H        0.02540    0.07550    0.12950    1.000
    C27      C        0.90872    0.19580    0.12357    1.000
    C28      C        0.91933    0.13650    0.15858    1.000
    H17      H        0.94330    0.10700    0.16370    1.000
    C29      C        0.89438    0.12160    0.18563    1.000
    H18      H        0.90170    0.08150    0.20970    1.000
    N11      N        0.86031    0.16090    0.17968    1.000
    C30      C        0.85025    0.21830    0.14592    1.000
    H19      H        0.82600    0.24660    0.14140    1.000
    C31      C        0.87357    0.23770    0.11761    1.000
    H20      H        0.86570    0.27920    0.09430    1.000
    C32      C        0.94323    0.36830    0.00633    1.000
    C33      C        0.91142    0.42270    0.00163    1.000
    H21      H        0.89290    0.41160    0.01860    1.000
    C34      C        0.90668    0.49310    0.97214    1.000
    H22      H        0.88430    0.52870    0.96850    1.000
    N12      N        0.93226    0.51331    0.94841    1.000
    C35      C        0.96343    0.46160    0.95336    1.000
    H23      H        0.98200    0.47580    0.93680    1.000
    C36      C        0.96977    0.38860    0.98154    1.000
    H24      H        0.99200    0.35270    0.98390    1.000
    Zn1      Zn       0.12117    0.90373    0.06870    1.000
    I1       I        0.09971    0.76130    0.10415    1.000
    I2       I        0.13771    0.90120    0.99228    1.000
    Zn2      Zn       0.42126    0.88013    0.40366    1.000
    I3       I        0.38979    0.75558    0.43838    1.000
    I4       I        0.47818    0.86920    0.36736    1.000
    Zn3      Zn       0.82656    0.13994    0.22461    1.000
    I5       I        0.87059    0.16163    0.30052    1.000
    I6       I        0.76562    0.23014    0.19970    1.000
    I7       I        0.09987    0.76940    0.10720    1.000
    I8       I        0.13560    0.89440    0.99570    1.000
    I9       I        0.39110    0.75900    0.44340    1.000
    I10      I        0.47700    0.84930    0.36730    1.000
    I11      I        0.86550    0.16280    0.29710    1.000
    I12      I        0.76460    0.22490    0.19480    1.000
    C37      C        0.75670    0.59620    0.19843    1.000
    N13      N        0.76305    0.68419    0.19209    1.000
    C38      C        0.79324    0.71900    0.21962    1.000
    N14      N        0.81713    0.67242    0.24984    1.000
    C39      C        0.80734    0.58610    0.25425    1.000
    N15      N        0.77701    0.54480    0.23037    1.000
    C40      C        0.72453    0.55150    0.16848    1.000
    C41      C        0.71475    0.46260    0.17611    1.000
    H25      H        0.72860    0.43030    0.20060    1.000
    C42      C        0.68496    0.42210    0.14799    1.000
    H26      H        0.67840    0.36160    0.15370    1.000
    N16      N        0.66469    0.46491    0.11268    1.000
    C43      C        0.67417    0.55090    0.10527    1.000
    H27      H        0.66000    0.58160    0.08040    1.000
    C44      C        0.70362    0.59640    0.13225    1.000
    H28      H        0.70940    0.65710    0.12610    1.000
    C45      C        0.80055    0.81760    0.21853    1.000
    C46      C        0.77278    0.87790    0.19879    1.000
    H29      H        0.74850    0.85660    0.18410    1.000
    C47      C        0.78079    0.96940    0.20064    1.000
    H30      H        0.76150    0.01040    0.18730    1.000
    N17      N        0.81472    0.00275    0.22043    1.000
    C48      C        0.84158    0.94390    0.23936    1.000
    H31      H        0.86570    0.96690    0.25350    1.000
    C49      C        0.83581    0.85170    0.23927    1.000
    H32      H        0.85550    0.81210    0.25310    1.000
    C50      C        0.83317    0.53420    0.28945    1.000
    C51      C        0.86452    0.57620    0.31421    1.000
    H33      H        0.87000    0.63750    0.30890    1.000
    C52      C        0.88790    0.52790    0.34680    1.000
    H34      H        0.90980    0.55700    0.36340    1.000
    N18      N        0.88122    0.44209    0.35611    1.000
    C53      C        0.85035    0.40160    0.33257    1.000
    H35      H        0.84520    0.34080    0.33930    1.000
    C54      C        0.82553    0.44460    0.29872    1.000
    H36      H        0.80400    0.41390    0.28230    1.000
    C55      C        0.48311    0.66770    0.06380    1.000
    N19      N        0.46287    0.65410    0.09450    1.000
    C56      C        0.43421    0.71210    0.09265    1.000
    N20      N        0.42641    0.78275    0.06537    1.000
    C57      C        0.44881    0.78970    0.03684    1.000
    N21      N        0.47670    0.73230    0.03341    1.000
    C58      C        0.51569    0.60660    0.06440    1.000
    C59      C        0.52915    0.59100    0.02687    1.000
    H37      H        0.51740    0.61900    0.00000    1.000
    C60      C        0.55988    0.53460    0.02880    1.000
    H38      H        0.56880    0.52340    0.00280    1.000
    N22      N        0.57771    0.49475    0.06605    1.000
    C61      C        0.56484    0.51190    0.10262    1.000
    H39      H        0.57770    0.48520    0.12930    1.000
    C62      C        0.53399    0.56600    0.10311    1.000
    H40      H        0.52540    0.57550    0.12950    1.000
    C63      C        0.40872    0.69580    0.12357    1.000
    C64      C        0.41933    0.63650    0.15858    1.000
    H41      H        0.44330    0.60700    0.16370    1.000
    C65      C        0.39438    0.62160    0.18563    1.000
    H42      H        0.40170    0.58150    0.20970    1.000
    N23      N        0.36031    0.66090    0.17968    1.000
    C66      C        0.35025    0.71830    0.14592    1.000
    H43      H        0.32600    0.74660    0.14140    1.000
    C67      C        0.37357    0.73770    0.11761    1.000
    H44      H        0.36570    0.77920    0.09430    1.000
    C68      C        0.44323    0.86830    0.00633    1.000
    C69      C        0.41142    0.92270    0.00163    1.000
    H45      H        0.39290    0.91160    0.01860    1.000
    C70      C        0.40668    0.99310    0.97214    1.000
    H46      H        0.38430    0.02870    0.96850    1.000
    N24      N        0.43226    0.01331    0.94841    1.000
    C71      C        0.46343    0.96160    0.95336    1.000
    H47      H        0.48200    0.97580    0.93680    1.000
    C72      C        0.46977    0.88860    0.98154    1.000
    H48      H        0.49200    0.85270    0.98390    1.000
    Zn4      Zn       0.62117    0.40373    0.06870    1.000
    I13      I        0.59971    0.26130    0.10415    1.000
    I14      I        0.63771    0.40120    0.99228    1.000
    Zn5      Zn       0.92126    0.38013    0.40366    1.000
    I15      I        0.88979    0.25558    0.43838    1.000
    I16      I        0.97818    0.36920    0.36736    1.000
    Zn6      Zn       0.32656    0.63994    0.22461    1.000
    I17      I        0.37059    0.66163    0.30052    1.000
    I18      I        0.26562    0.73014    0.19970    1.000
    I19      I        0.59987    0.26940    0.10720    1.000
    I20      I        0.63560    0.39440    0.99570    1.000
    I21      I        0.89110    0.25900    0.44340    1.000
    I22      I        0.97700    0.34930    0.36730    1.000
    I23      I        0.36550    0.66280    0.29710    1.000
    I24      I        0.26460    0.72490    0.19480    1.000
    C73      C        0.25670    0.90380    0.69843    1.000
    N25      N        0.26305    0.81581    0.69209    1.000
    C74      C        0.29324    0.78100    0.71962    1.000
    N26      N        0.31713    0.82758    0.74984    1.000
    C75      C        0.30734    0.91390    0.75425    1.000
    N27      N        0.27701    0.95520    0.73037    1.000
    C76      C        0.22453    0.94850    0.66848    1.000
    C77      C        0.21475    0.03740    0.67611    1.000
    H49      H        0.22860    0.06970    0.70060    1.000
    C78      C        0.18496    0.07790    0.64799    1.000
    H50      H        0.17840    0.13840    0.65370    1.000
    N28      N        0.16469    0.03509    0.61268    1.000
    C79      C        0.17417    0.94910    0.60527    1.000
    H51      H        0.16000    0.91840    0.58040    1.000
    C80      C        0.20362    0.90360    0.63225    1.000
    H52      H        0.20940    0.84290    0.62610    1.000
    C81      C        0.30055    0.68240    0.71853    1.000
    C82      C        0.27278    0.62210    0.69879    1.000
    H53      H        0.24850    0.64340    0.68410    1.000
    C83      C        0.28079    0.53060    0.70064    1.000
    H54      H        0.26150    0.48960    0.68730    1.000
    N29      N        0.31472    0.49725    0.72043    1.000
    C84      C        0.34158    0.55610    0.73936    1.000
    H55      H        0.36570    0.53310    0.75350    1.000
    C85      C        0.33581    0.64830    0.73927    1.000
    H56      H        0.35550    0.68790    0.75310    1.000
    C86      C        0.33317    0.96580    0.78945    1.000
    C87      C        0.36452    0.92380    0.81421    1.000
    H57      H        0.37000    0.86250    0.80890    1.000
    C88      C        0.38790    0.97210    0.84680    1.000
    H58      H        0.40980    0.94300    0.86340    1.000
    N30      N        0.38122    0.05791    0.85611    1.000
    C89      C        0.35035    0.09840    0.83257    1.000
    H59      H        0.34520    0.15920    0.83930    1.000
    C90      C        0.32553    0.05540    0.79872    1.000
    H60      H        0.30400    0.08610    0.78230    1.000
    C91      C        0.98311    0.83230    0.56380    1.000
    N31      N        0.96287    0.84590    0.59450    1.000
    C92      C        0.93421    0.78790    0.59265    1.000
    N32      N        0.92641    0.71725    0.56537    1.000
    C93      C        0.94881    0.71030    0.53684    1.000
    N33      N        0.97670    0.76770    0.53341    1.000
    C94      C        0.01569    0.89340    0.56440    1.000
    C95      C        0.02915    0.90900    0.52687    1.000
    H61      H        0.01740    0.88100    0.50000    1.000
    C96      C        0.05988    0.96540    0.52880    1.000
    H62      H        0.06880    0.97660    0.50280    1.000
    N34      N        0.07771    0.00525    0.56605    1.000
    C97      C        0.06484    0.98810    0.60262    1.000
    H63      H        0.07770    0.01480    0.62930    1.000
    C98      C        0.03399    0.93400    0.60311    1.000
    H64      H        0.02540    0.92450    0.62950    1.000
    C99      C        0.90872    0.80420    0.62357    1.000
    C100     C        0.91933    0.86350    0.65858    1.000
    H65      H        0.94330    0.89300    0.66370    1.000
    C101     C        0.89438    0.87840    0.68563    1.000
    H66      H        0.90170    0.91850    0.70970    1.000
    N35      N        0.86031    0.83910    0.67968    1.000
    C102     C        0.85025    0.78170    0.64592    1.000
    H67      H        0.82600    0.75340    0.64140    1.000
    C103     C        0.87357    0.76230    0.61761    1.000
    H68      H        0.86570    0.72080    0.59430    1.000
    C104     C        0.94323    0.63170    0.50633    1.000
    C105     C        0.91142    0.57730    0.50163    1.000
    H69      H        0.89290    0.58840    0.51860    1.000
    C106     C        0.90668    0.50690    0.47214    1.000
    H70      H        0.88430    0.47130    0.46850    1.000
    N36      N        0.93226    0.48669    0.44841    1.000
    C107     C        0.96343    0.53840    0.45336    1.000
    H71      H        0.98200    0.52420    0.43680    1.000
    C108     C        0.96977    0.61140    0.48154    1.000
    H72      H        0.99200    0.64730    0.48390    1.000
    Zn7      Zn       0.12117    0.09627    0.56870    1.000
    I25      I        0.09971    0.23870    0.60415    1.000
    I26      I        0.13771    0.09880    0.49228    1.000
    Zn8      Zn       0.42126    0.11987    0.90366    1.000
    I27      I        0.38979    0.24442    0.93838    1.000
    I28      I        0.47818    0.13080    0.86736    1.000
    Zn9      Zn       0.82656    0.86006    0.72461    1.000
    I29      I        0.87059    0.83837    0.80052    1.000
    I30      I        0.76562    0.76986    0.69970    1.000
    I31      I        0.09987    0.23060    0.60720    1.000
    I32      I        0.13560    0.10560    0.49570    1.000
    I33      I        0.39110    0.24100    0.94340    1.000
    I34      I        0.47700    0.15070    0.86730    1.000
    I35      I        0.86550    0.83720    0.79710    1.000
    I36      I        0.76460    0.77510    0.69480    1.000
    C109     C        0.75670    0.40380    0.69843    1.000
    N37      N        0.76305    0.31581    0.69209    1.000
    C110     C        0.79324    0.28100    0.71962    1.000
    N38      N        0.81713    0.32758    0.74984    1.000
    C111     C        0.80734    0.41390    0.75425    1.000
    N39      N        0.77701    0.45520    0.73037    1.000
    C112     C        0.72453    0.44850    0.66848    1.000
    C113     C        0.71475    0.53740    0.67611    1.000
    H73      H        0.72860    0.56970    0.70060    1.000
    C114     C        0.68496    0.57790    0.64799    1.000
    H74      H        0.67840    0.63840    0.65370    1.000
    N40      N        0.66469    0.53509    0.61268    1.000
    C115     C        0.67417    0.44910    0.60527    1.000
    H75      H        0.66000    0.41840    0.58040    1.000
    C116     C        0.70362    0.40360    0.63225    1.000
    H76      H        0.70940    0.34290    0.62610    1.000
    C117     C        0.80055    0.18240    0.71853    1.000
    C118     C        0.77278    0.12210    0.69879    1.000
    H77      H        0.74850    0.14340    0.68410    1.000
    C119     C        0.78079    0.03060    0.70064    1.000
    H78      H        0.76150    0.98960    0.68730    1.000
    N41      N        0.81472    0.99725    0.72043    1.000
    C120     C        0.84158    0.05610    0.73936    1.000
    H79      H        0.86570    0.03310    0.75350    1.000
    C121     C        0.83581    0.14830    0.73927    1.000
    H80      H        0.85550    0.18790    0.75310    1.000
    C122     C        0.83317    0.46580    0.78945    1.000
    C123     C        0.86452    0.42380    0.81421    1.000
    H81      H        0.87000    0.36250    0.80890    1.000
    C124     C        0.88790    0.47210    0.84680    1.000
    H82      H        0.90980    0.44300    0.86340    1.000
    N42      N        0.88122    0.55791    0.85611    1.000
    C125     C        0.85035    0.59840    0.83257    1.000
    H83      H        0.84520    0.65920    0.83930    1.000
    C126     C        0.82553    0.55540    0.79872    1.000
    H84      H        0.80400    0.58610    0.78230    1.000
    C127     C        0.48311    0.33230    0.56380    1.000
    N43      N        0.46287    0.34590    0.59450    1.000
    C128     C        0.43421    0.28790    0.59265    1.000
    N44      N        0.42641    0.21725    0.56537    1.000
    C129     C        0.44881    0.21030    0.53684    1.000
    N45      N        0.47670    0.26770    0.53341    1.000
    C130     C        0.51569    0.39340    0.56440    1.000
    C131     C        0.52915    0.40900    0.52687    1.000
    H85      H        0.51740    0.38100    0.50000    1.000
    C132     C        0.55988    0.46540    0.52880    1.000
    H86      H        0.56880    0.47660    0.50280    1.000
    N46      N        0.57771    0.50525    0.56605    1.000
    C133     C        0.56484    0.48810    0.60262    1.000
    H87      H        0.57770    0.51480    0.62930    1.000
    C134     C        0.53399    0.43400    0.60311    1.000
    H88      H        0.52540    0.42450    0.62950    1.000
    C135     C        0.40872    0.30420    0.62357    1.000
    C136     C        0.41933    0.36350    0.65858    1.000
    H89      H        0.44330    0.39300    0.66370    1.000
    C137     C        0.39438    0.37840    0.68563    1.000
    H90      H        0.40170    0.41850    0.70970    1.000
    N47      N        0.36031    0.33910    0.67968    1.000
    C138     C        0.35025    0.28170    0.64592    1.000
    H91      H        0.32600    0.25340    0.64140    1.000
    C139     C        0.37357    0.26230    0.61761    1.000
    H92      H        0.36570    0.22080    0.59430    1.000
    C140     C        0.44323    0.13170    0.50633    1.000
    C141     C        0.41142    0.07730    0.50163    1.000
    H93      H        0.39290    0.08840    0.51860    1.000
    C142     C        0.40668    0.00690    0.47214    1.000
    H94      H        0.38430    0.97130    0.46850    1.000
    N48      N        0.43226    0.98669    0.44841    1.000
    C143     C        0.46343    0.03840    0.45336    1.000
    H95      H        0.48200    0.02420    0.43680    1.000
    C144     C        0.46977    0.11140    0.48154    1.000
    H96      H        0.49200    0.14730    0.48390    1.000
    Zn10     Zn       0.62117    0.59627    0.56870    1.000
    I37      I        0.59971    0.73870    0.60415    1.000
    I38      I        0.63771    0.59880    0.49228    1.000
    Zn11     Zn       0.92126    0.61987    0.90366    1.000
    I39      I        0.88979    0.74442    0.93838    1.000
    I40      I        0.97818    0.63080    0.86736    1.000
    Zn12     Zn       0.32656    0.36006    0.72461    1.000
    I41      I        0.37059    0.33837    0.80052    1.000
    I42      I        0.26562    0.26986    0.69970    1.000
    I43      I        0.59987    0.73060    0.60720    1.000
    I44      I        0.63560    0.60560    0.49570    1.000
    I45      I        0.89110    0.74100    0.94340    1.000
    I46      I        0.97700    0.65070    0.86730    1.000
    I47      I        0.36550    0.33720    0.79710    1.000
    I48      I        0.26460    0.27510    0.69480    1.000
    C145     C        0.74330    0.09620    0.30157    1.000
    N49      N        0.73695    0.18419    0.30791    1.000
    C146     C        0.70676    0.21900    0.28038    1.000
    N50      N        0.68287    0.17242    0.25016    1.000
    C147     C        0.69266    0.08610    0.24575    1.000
    N51      N        0.72299    0.04480    0.26963    1.000
    C148     C        0.77547    0.05150    0.33152    1.000
    C149     C        0.78525    0.96260    0.32389    1.000
    H97      H        0.77140    0.93030    0.29940    1.000
    C150     C        0.81504    0.92210    0.35201    1.000
    H98      H        0.82160    0.86160    0.34630    1.000
    N52      N        0.83531    0.96491    0.38732    1.000
    C151     C        0.82583    0.05090    0.39473    1.000
    H99      H        0.84000    0.08160    0.41960    1.000
    C152     C        0.79638    0.09640    0.36775    1.000
    H100     H        0.79060    0.15710    0.37390    1.000
    C153     C        0.69945    0.31760    0.28147    1.000
    C154     C        0.72722    0.37790    0.30121    1.000
    H101     H        0.75150    0.35660    0.31590    1.000
    C155     C        0.71921    0.46940    0.29936    1.000
    H102     H        0.73850    0.51040    0.31270    1.000
    N53      N        0.68528    0.50275    0.27957    1.000
    C156     C        0.65842    0.44390    0.26064    1.000
    H103     H        0.63430    0.46690    0.24650    1.000
    C157     C        0.66419    0.35170    0.26073    1.000
    H104     H        0.64450    0.31210    0.24690    1.000
    C158     C        0.66683    0.03420    0.21055    1.000
    C159     C        0.63548    0.07620    0.18579    1.000
    H105     H        0.63000    0.13750    0.19110    1.000
    C160     C        0.61210    0.02790    0.15320    1.000
    H106     H        0.59020    0.05700    0.13660    1.000
    N54      N        0.61878    0.94209    0.14389    1.000
    C161     C        0.64965    0.90160    0.16743    1.000
    H107     H        0.65480    0.84080    0.16070    1.000
    C162     C        0.67447    0.94460    0.20128    1.000
    H108     H        0.69600    0.91390    0.21770    1.000
    C163     C        0.01689    0.16770    0.43620    1.000
    N55      N        0.03713    0.15410    0.40550    1.000
    C164     C        0.06579    0.21210    0.40735    1.000
    N56      N        0.07359    0.28275    0.43463    1.000
    C165     C        0.05119    0.28970    0.46316    1.000
    N57      N        0.02330    0.23230    0.46659    1.000
    C166     C        0.98431    0.10660    0.43560    1.000
    C167     C        0.97085    0.09100    0.47313    1.000
    H109     H        0.98260    0.11900    0.50000    1.000
    C168     C        0.94012    0.03460    0.47120    1.000
    H110     H        0.93120    0.02340    0.49720    1.000
    N58      N        0.92229    0.99475    0.43395    1.000
    C169     C        0.93516    0.01190    0.39738    1.000
    H111     H        0.92230    0.98520    0.37070    1.000
    C170     C        0.96601    0.06600    0.39689    1.000
    H112     H        0.97460    0.07550    0.37050    1.000
    C171     C        0.09128    0.19580    0.37643    1.000
    C172     C        0.08067    0.13650    0.34142    1.000
    H113     H        0.05670    0.10700    0.33630    1.000
    C173     C        0.10562    0.12160    0.31437    1.000
    H114     H        0.09830    0.08150    0.29030    1.000
    N59      N        0.13969    0.16090    0.32032    1.000
    C174     C        0.14975    0.21830    0.35408    1.000
    H115     H        0.17400    0.24660    0.35860    1.000
    C175     C        0.12643    0.23770    0.38239    1.000
    H116     H        0.13430    0.27920    0.40570    1.000
    C176     C        0.05677    0.36830    0.49367    1.000
    C177     C        0.08858    0.42270    0.49837    1.000
    H117     H        0.10710    0.41160    0.48140    1.000
    C178     C        0.09332    0.49310    0.52786    1.000
    H118     H        0.11570    0.52870    0.53150    1.000
    N60      N        0.06774    0.51331    0.55159    1.000
    C179     C        0.03657    0.46160    0.54664    1.000
    H119     H        0.01800    0.47580    0.56320    1.000
    C180     C        0.03023    0.38860    0.51846    1.000
    H120     H        0.00800    0.35270    0.51610    1.000
    Zn13     Zn       0.87883    0.90373    0.43130    1.000
    I49      I        0.90029    0.76130    0.39585    1.000
    I50      I        0.86229    0.90120    0.50772    1.000
    Zn14     Zn       0.57874    0.88013    0.09634    1.000
    I51      I        0.61021    0.75558    0.06162    1.000
    I52      I        0.52182    0.86920    0.13264    1.000
    Zn15     Zn       0.17344    0.13994    0.27539    1.000
    I53      I        0.12941    0.16163    0.19948    1.000
    I54      I        0.23438    0.23014    0.30030    1.000
    I55      I        0.90013    0.76940    0.39280    1.000
    I56      I        0.86440    0.89440    0.50430    1.000
    I57      I        0.60890    0.75900    0.05660    1.000
    I58      I        0.52300    0.84930    0.13270    1.000
    I59      I        0.13450    0.16280    0.20290    1.000
    I60      I        0.23540    0.22490    0.30520    1.000
    C181     C        0.24330    0.59620    0.30157    1.000
    N61      N        0.23695    0.68419    0.30791    1.000
    C182     C        0.20676    0.71900    0.28038    1.000
    N62      N        0.18287    0.67242    0.25016    1.000
    C183     C        0.19266    0.58610    0.24575    1.000
    N63      N        0.22299    0.54480    0.26963    1.000
    C184     C        0.27547    0.55150    0.33152    1.000
    C185     C        0.28525    0.46260    0.32389    1.000
    H121     H        0.27140    0.43030    0.29940    1.000
    C186     C        0.31504    0.42210    0.35201    1.000
    H122     H        0.32160    0.36160    0.34630    1.000
    N64      N        0.33531    0.46491    0.38732    1.000
    C187     C        0.32583    0.55090    0.39473    1.000
    H123     H        0.34000    0.58160    0.41960    1.000
    C188     C        0.29638    0.59640    0.36775    1.000
    H124     H        0.29060    0.65710    0.37390    1.000
    C189     C        0.19945    0.81760    0.28147    1.000
    C190     C        0.22722    0.87790    0.30121    1.000
    H125     H        0.25150    0.85660    0.31590    1.000
    C191     C        0.21921    0.96940    0.29936    1.000
    H126     H        0.23850    0.01040    0.31270    1.000
    N65      N        0.18528    0.00275    0.27957    1.000
    C192     C        0.15842    0.94390    0.26064    1.000
    H127     H        0.13430    0.96690    0.24650    1.000
    C193     C        0.16419    0.85170    0.26073    1.000
    H128     H        0.14450    0.81210    0.24690    1.000
    C194     C        0.16683    0.53420    0.21055    1.000
    C195     C        0.13548    0.57620    0.18579    1.000
    H129     H        0.13000    0.63750    0.19110    1.000
    C196     C        0.11210    0.52790    0.15320    1.000
    H130     H        0.09020    0.55700    0.13660    1.000
    N66      N        0.11878    0.44209    0.14389    1.000
    C197     C        0.14965    0.40160    0.16743    1.000
    H131     H        0.15480    0.34080    0.16070    1.000
    C198     C        0.17447    0.44460    0.20128    1.000
    H132     H        0.19600    0.41390    0.21770    1.000
    C199     C        0.51689    0.66770    0.43620    1.000
    N67      N        0.53713    0.65410    0.40550    1.000
    C200     C        0.56579    0.71210    0.40735    1.000
    N68      N        0.57359    0.78275    0.43463    1.000
    C201     C        0.55119    0.78970    0.46316    1.000
    N69      N        0.52330    0.73230    0.46659    1.000
    C202     C        0.48431    0.60660    0.43560    1.000
    C203     C        0.47085    0.59100    0.47313    1.000
    H133     H        0.48260    0.61900    0.50000    1.000
    C204     C        0.44012    0.53460    0.47120    1.000
    H134     H        0.43120    0.52340    0.49720    1.000
    N70      N        0.42229    0.49475    0.43395    1.000
    C205     C        0.43516    0.51190    0.39738    1.000
    H135     H        0.42230    0.48520    0.37070    1.000
    C206     C        0.46601    0.56600    0.39689    1.000
    H136     H        0.47460    0.57550    0.37050    1.000
    C207     C        0.59128    0.69580    0.37643    1.000
    C208     C        0.58067    0.63650    0.34142    1.000
    H137     H        0.55670    0.60700    0.33630    1.000
    C209     C        0.60562    0.62160    0.31437    1.000
    H138     H        0.59830    0.58150    0.29030    1.000
    N71      N        0.63969    0.66090    0.32032    1.000
    C210     C        0.64975    0.71830    0.35408    1.000
    H139     H        0.67400    0.74660    0.35860    1.000
    C211     C        0.62643    0.73770    0.38239    1.000
    H140     H        0.63430    0.77920    0.40570    1.000
    C212     C        0.55677    0.86830    0.49367    1.000
    C213     C        0.58858    0.92270    0.49837    1.000
    H141     H        0.60710    0.91160    0.48140    1.000
    C214     C        0.59332    0.99310    0.52786    1.000
    H142     H        0.61570    0.02870    0.53150    1.000
    N72      N        0.56774    0.01331    0.55159    1.000
    C215     C        0.53657    0.96160    0.54664    1.000
    H143     H        0.51800    0.97580    0.56320    1.000
    C216     C        0.53023    0.88860    0.51846    1.000
    H144     H        0.50800    0.85270    0.51610    1.000
    Zn16     Zn       0.37883    0.40373    0.43130    1.000
    I61      I        0.40029    0.26130    0.39585    1.000
    I62      I        0.36229    0.40120    0.50772    1.000
    Zn17     Zn       0.07874    0.38013    0.09634    1.000
    I63      I        0.11021    0.25558    0.06162    1.000
    I64      I        0.02182    0.36920    0.13264    1.000
    Zn18     Zn       0.67344    0.63994    0.27539    1.000
    I65      I        0.62941    0.66163    0.19948    1.000
    I66      I        0.73438    0.73014    0.30030    1.000
    I67      I        0.40013    0.26940    0.39280    1.000
    I68      I        0.36440    0.39440    0.50430    1.000
    I69      I        0.10890    0.25900    0.05660    1.000
    I70      I        0.02300    0.34930    0.13270    1.000
    I71      I        0.63450    0.66280    0.20290    1.000
    I72      I        0.73540    0.72490    0.30520    1.000
    C217     C        0.74330    0.90380    0.80157    1.000
    N73      N        0.73695    0.81581    0.80791    1.000
    C218     C        0.70676    0.78100    0.78038    1.000
    N74      N        0.68287    0.82758    0.75016    1.000
    C219     C        0.69266    0.91390    0.74575    1.000
    N75      N        0.72299    0.95520    0.76963    1.000
    C220     C        0.77547    0.94850    0.83152    1.000
    C221     C        0.78525    0.03740    0.82389    1.000
    H145     H        0.77140    0.06970    0.79940    1.000
    C222     C        0.81504    0.07790    0.85201    1.000
    H146     H        0.82160    0.13840    0.84630    1.000
    N76      N        0.83531    0.03509    0.88732    1.000
    C223     C        0.82583    0.94910    0.89473    1.000
    H147     H        0.84000    0.91840    0.91960    1.000
    C224     C        0.79638    0.90360    0.86775    1.000
    H148     H        0.79060    0.84290    0.87390    1.000
    C225     C        0.69945    0.68240    0.78147    1.000
    C226     C        0.72722    0.62210    0.80121    1.000
    H149     H        0.75150    0.64340    0.81590    1.000
    C227     C        0.71921    0.53060    0.79936    1.000
    H150     H        0.73850    0.48960    0.81270    1.000
    N77      N        0.68528    0.49725    0.77957    1.000
    C228     C        0.65842    0.55610    0.76064    1.000
    H151     H        0.63430    0.53310    0.74650    1.000
    C229     C        0.66419    0.64830    0.76073    1.000
    H152     H        0.64450    0.68790    0.74690    1.000
    C230     C        0.66683    0.96580    0.71055    1.000
    C231     C        0.63548    0.92380    0.68579    1.000
    H153     H        0.63000    0.86250    0.69110    1.000
    C232     C        0.61210    0.97210    0.65320    1.000
    H154     H        0.59020    0.94300    0.63660    1.000
    N78      N        0.61878    0.05791    0.64389    1.000
    C233     C        0.64965    0.09840    0.66743    1.000
    H155     H        0.65480    0.15920    0.66070    1.000
    C234     C        0.67447    0.05540    0.70128    1.000
    H156     H        0.69600    0.08610    0.71770    1.000
    C235     C        0.01689    0.83230    0.93620    1.000
    N79      N        0.03713    0.84590    0.90550    1.000
    C236     C        0.06579    0.78790    0.90735    1.000
    N80      N        0.07359    0.71725    0.93463    1.000
    C237     C        0.05119    0.71030    0.96316    1.000
    N81      N        0.02330    0.76770    0.96659    1.000
    C238     C        0.98431    0.89340    0.93560    1.000
    C239     C        0.97085    0.90900    0.97313    1.000
    H157     H        0.98260    0.88100    0.00000    1.000
    C240     C        0.94012    0.96540    0.97120    1.000
    H158     H        0.93120    0.97660    0.99720    1.000
    N82      N        0.92229    0.00525    0.93395    1.000
    C241     C        0.93516    0.98810    0.89738    1.000
    H159     H        0.92230    0.01480    0.87070    1.000
    C242     C        0.96601    0.93400    0.89689    1.000
    H160     H        0.97460    0.92450    0.87050    1.000
    C243     C        0.09128    0.80420    0.87643    1.000
    C244     C        0.08067    0.86350    0.84142    1.000
    H161     H        0.05670    0.89300    0.83630    1.000
    C245     C        0.10562    0.87840    0.81437    1.000
    H162     H        0.09830    0.91850    0.79030    1.000
    N83      N        0.13969    0.83910    0.82032    1.000
    C246     C        0.14975    0.78170    0.85408    1.000
    H163     H        0.17400    0.75340    0.85860    1.000
    C247     C        0.12643    0.76230    0.88239    1.000
    H164     H        0.13430    0.72080    0.90570    1.000
    C248     C        0.05677    0.63170    0.99367    1.000
    C249     C        0.08858    0.57730    0.99837    1.000
    H165     H        0.10710    0.58840    0.98140    1.000
    C250     C        0.09332    0.50690    0.02786    1.000
    H166     H        0.11570    0.47130    0.03150    1.000
    N84      N        0.06774    0.48669    0.05159    1.000
    C251     C        0.03657    0.53840    0.04664    1.000
    H167     H        0.01800    0.52420    0.06320    1.000
    C252     C        0.03023    0.61140    0.01846    1.000
    H168     H        0.00800    0.64730    0.01610    1.000
    Zn19     Zn       0.87883    0.09627    0.93130    1.000
    I73      I        0.90029    0.23870    0.89585    1.000
    I74      I        0.86229    0.09880    0.00772    1.000
    Zn20     Zn       0.57874    0.11987    0.59634    1.000
    I75      I        0.61021    0.24442    0.56162    1.000
    I76      I        0.52182    0.13080    0.63264    1.000
    Zn21     Zn       0.17344    0.86006    0.77539    1.000
    I77      I        0.12941    0.83837    0.69948    1.000
    I78      I        0.23438    0.76986    0.80030    1.000
    I79      I        0.90013    0.23060    0.89280    1.000
    I80      I        0.86440    0.10560    0.00430    1.000
    I81      I        0.60890    0.24100    0.55660    1.000
    I82      I        0.52300    0.15070    0.63270    1.000
    I83      I        0.13450    0.83720    0.70290    1.000
    I84      I        0.23540    0.77510    0.80520    1.000
    C253     C        0.24330    0.40380    0.80157    1.000
    N85      N        0.23695    0.31581    0.80791    1.000
    C254     C        0.20676    0.28100    0.78038    1.000
    N86      N        0.18287    0.32758    0.75016    1.000
    C255     C        0.19266    0.41390    0.74575    1.000
    N87      N        0.22299    0.45520    0.76963    1.000
    C256     C        0.27547    0.44850    0.83152    1.000
    C257     C        0.28525    0.53740    0.82389    1.000
    H169     H        0.27140    0.56970    0.79940    1.000
    C258     C        0.31504    0.57790    0.85201    1.000
    H170     H        0.32160    0.63840    0.84630    1.000
    N88      N        0.33531    0.53509    0.88732    1.000
    C259     C        0.32583    0.44910    0.89473    1.000
    H171     H        0.34000    0.41840    0.91960    1.000
    C260     C        0.29638    0.40360    0.86775    1.000
    H172     H        0.29060    0.34290    0.87390    1.000
    C261     C        0.19945    0.18240    0.78147    1.000
    C262     C        0.22722    0.12210    0.80121    1.000
    H173     H        0.25150    0.14340    0.81590    1.000
    C263     C        0.21921    0.03060    0.79936    1.000
    H174     H        0.23850    0.98960    0.81270    1.000
    N89      N        0.18528    0.99725    0.77957    1.000
    C264     C        0.15842    0.05610    0.76064    1.000
    H175     H        0.13430    0.03310    0.74650    1.000
    C265     C        0.16419    0.14830    0.76073    1.000
    H176     H        0.14450    0.18790    0.74690    1.000
    C266     C        0.16683    0.46580    0.71055    1.000
    C267     C        0.13548    0.42380    0.68579    1.000
    H177     H        0.13000    0.36250    0.69110    1.000
    C268     C        0.11210    0.47210    0.65320    1.000
    H178     H        0.09020    0.44300    0.63660    1.000
    N90      N        0.11878    0.55791    0.64389    1.000
    C269     C        0.14965    0.59840    0.66743    1.000
    H179     H        0.15480    0.65920    0.66070    1.000
    C270     C        0.17447    0.55540    0.70128    1.000
    H180     H        0.19600    0.58610    0.71770    1.000
    C271     C        0.51689    0.33230    0.93620    1.000
    N91      N        0.53713    0.34590    0.90550    1.000
    C272     C        0.56579    0.28790    0.90735    1.000
    N92      N        0.57359    0.21725    0.93463    1.000
    C273     C        0.55119    0.21030    0.96316    1.000
    N93      N        0.52330    0.26770    0.96659    1.000
    C274     C        0.48431    0.39340    0.93560    1.000
    C275     C        0.47085    0.40900    0.97313    1.000
    H181     H        0.48260    0.38100    0.00000    1.000
    C276     C        0.44012    0.46540    0.97120    1.000
    H182     H        0.43120    0.47660    0.99720    1.000
    N94      N        0.42229    0.50525    0.93395    1.000
    C277     C        0.43516    0.48810    0.89738    1.000
    H183     H        0.42230    0.51480    0.87070    1.000
    C278     C        0.46601    0.43400    0.89689    1.000
    H184     H        0.47460    0.42450    0.87050    1.000
    C279     C        0.59128    0.30420    0.87643    1.000
    C280     C        0.58067    0.36350    0.84142    1.000
    H185     H        0.55670    0.39300    0.83630    1.000
    C281     C        0.60562    0.37840    0.81437    1.000
    H186     H        0.59830    0.41850    0.79030    1.000
    N95      N        0.63969    0.33910    0.82032    1.000
    C282     C        0.64975    0.28170    0.85408    1.000
    H187     H        0.67400    0.25340    0.85860    1.000
    C283     C        0.62643    0.26230    0.88239    1.000
    H188     H        0.63430    0.22080    0.90570    1.000
    C284     C        0.55677    0.13170    0.99367    1.000
    C285     C        0.58858    0.07730    0.99837    1.000
    H189     H        0.60710    0.08840    0.98140    1.000
    C286     C        0.59332    0.00690    0.02786    1.000
    H190     H        0.61570    0.97130    0.03150    1.000
    N96      N        0.56774    0.98669    0.05159    1.000
    C287     C        0.53657    0.03840    0.04664    1.000
    H191     H        0.51800    0.02420    0.06320    1.000
    C288     C        0.53023    0.11140    0.01846    1.000
    H192     H        0.50800    0.14730    0.01610    1.000
    Zn22     Zn       0.37883    0.59627    0.93130    1.000
    I85      I        0.40029    0.73870    0.89585    1.000
    I86      I        0.36229    0.59880    0.00772    1.000
    Zn23     Zn       0.07874    0.61987    0.59634    1.000
    I87      I        0.11021    0.74442    0.56162    1.000
    I88      I        0.02182    0.63080    0.63264    1.000
    Zn24     Zn       0.67344    0.36006    0.77539    1.000
    I89      I        0.62941    0.33837    0.69948    1.000
    I90      I        0.73438    0.26986    0.80030    1.000
    I91      I        0.40013    0.73060    0.89280    1.000
    I92      I        0.36440    0.60560    0.00430    1.000
    I93      I        0.10890    0.74100    0.55660    1.000
    I94      I        0.02300    0.65070    0.63270    1.000
    I95      I        0.63450    0.33720    0.70290    1.000
    I96      I        0.73540    0.27510    0.80520    1.000
