# CIF file generated by openbabel 3.1.0, see https://openbabel.org
data_I
_chemical_name_common 'image0'
_cell_length_a 24.942
_cell_length_b 24.942
_cell_length_c 24.942
_cell_angle_alpha 90
_cell_angle_beta 90
_cell_angle_gamma 90
_space_group_name_H-M_alt 'P 1'
_space_group_name_Hall 'P 1'
loop_
    _symmetry_equiv_pos_as_xyz
    x,y,z
loop_
    _atom_site_label
    _atom_site_type_symbol
    _atom_site_fract_x
    _atom_site_fract_y
    _atom_site_fract_z
    _atom_site_occupancy
    O1       O        0.00958    0.10986    0.09296    1.000
    O2       O        0.96895    0.03320    0.07079    1.000
    O3       O        0.79179    0.19374    0.23711    1.000
    O4       O        0.73898    0.13203    0.19993    1.000
    O5       O        0.78047    0.06184    0.13716    1.000
    C1       C        0.96908    0.07813    0.09209    1.000
    C2       C        0.92052    0.09769    0.12063    1.000
    C3       C        0.92378    0.14352    0.15205    1.000
    H1       H        0.95640    0.16310    0.15400    1.000
    C4       C        0.87942    0.16036    0.18028    1.000
    H2       H        0.88200    0.19090    0.20280    1.000
    C5       C        0.83141    0.13353    0.17627    1.000
    C6       C        0.78372    0.15425    0.20609    1.000
    C7       C        0.82816    0.08835    0.14449    1.000
    C8       C        0.87229    0.07005    0.11694    1.000
    H3       H        0.86980    0.03870    0.09550    1.000
    C9       C        0.10875    0.12173    0.18271    1.000
    H4       H        0.11640    0.08530    0.19640    1.000
    H5       H        0.06970    0.12810    0.18540    1.000
    C10      C        0.13910    0.16360    0.21661    1.000
    H6       H        0.11470    0.19330    0.22650    1.000
    H7       H        0.15250    0.14680    0.25000    1.000
    O6       O        0.86850    0.02140    0.09200    1.000
    O7       O        0.49042    0.89014    0.59296    1.000
    O8       O        0.53105    0.96680    0.57079    1.000
    O9       O        0.70821    0.80626    0.73711    1.000
    O10      O        0.76102    0.86797    0.69993    1.000
    O11      O        0.71953    0.93816    0.63716    1.000
    C11      C        0.53092    0.92187    0.59209    1.000
    C12      C        0.57948    0.90231    0.62063    1.000
    C13      C        0.57622    0.85648    0.65205    1.000
    H8       H        0.54360    0.83690    0.65400    1.000
    C14      C        0.62058    0.83964    0.68028    1.000
    H9       H        0.61800    0.80910    0.70280    1.000
    C15      C        0.66859    0.86647    0.67627    1.000
    C16      C        0.71628    0.84575    0.70609    1.000
    C17      C        0.67184    0.91165    0.64449    1.000
    C18      C        0.62771    0.92995    0.61694    1.000
    H10      H        0.63020    0.96130    0.59550    1.000
    C19      C        0.39125    0.87827    0.68271    1.000
    H11      H        0.38360    0.91470    0.69640    1.000
    H12      H        0.43030    0.87190    0.68540    1.000
    C20      C        0.36090    0.83640    0.71661    1.000
    H13      H        0.38530    0.80670    0.72650    1.000
    H14      H        0.34750    0.85320    0.75000    1.000
    O12      O        0.63150    0.97860    0.59200    1.000
    O13      O        0.99042    0.60986    0.40704    1.000
    O14      O        0.03105    0.53320    0.42921    1.000
    O15      O        0.20821    0.69374    0.26289    1.000
    O16      O        0.26102    0.63203    0.30007    1.000
    O17      O        0.21953    0.56184    0.36284    1.000
    C21      C        0.03092    0.57813    0.40791    1.000
    C22      C        0.07948    0.59769    0.37937    1.000
    C23      C        0.07622    0.64352    0.34795    1.000
    H15      H        0.04360    0.66310    0.34600    1.000
    C24      C        0.12058    0.66036    0.31972    1.000
    H16      H        0.11800    0.69090    0.29720    1.000
    C25      C        0.16859    0.63353    0.32373    1.000
    C26      C        0.21628    0.65425    0.29391    1.000
    C27      C        0.17184    0.58835    0.35551    1.000
    C28      C        0.12771    0.57005    0.38306    1.000
    H17      H        0.13020    0.53870    0.40450    1.000
    C29      C        0.89125    0.62173    0.31729    1.000
    H18      H        0.88360    0.58530    0.30360    1.000
    H19      H        0.93030    0.62810    0.31460    1.000
    C30      C        0.86090    0.66360    0.28339    1.000
    H20      H        0.88530    0.69330    0.27350    1.000
    H21      H        0.84750    0.64680    0.25000    1.000
    O18      O        0.13150    0.52140    0.40800    1.000
    O19      O        0.50958    0.39014    0.90704    1.000
    O20      O        0.46895    0.46680    0.92921    1.000
    O21      O        0.29179    0.30626    0.76289    1.000
    O22      O        0.23898    0.36797    0.80007    1.000
    O23      O        0.28047    0.43816    0.86284    1.000
    C31      C        0.46908    0.42187    0.90791    1.000
    C32      C        0.42052    0.40231    0.87937    1.000
    C33      C        0.42378    0.35648    0.84795    1.000
    H22      H        0.45640    0.33690    0.84600    1.000
    C34      C        0.37942    0.33964    0.81972    1.000
    H23      H        0.38200    0.30910    0.79720    1.000
    C35      C        0.33141    0.36647    0.82373    1.000
    C36      C        0.28372    0.34575    0.79391    1.000
    C37      C        0.32816    0.41165    0.85551    1.000
    C38      C        0.37229    0.42995    0.88306    1.000
    H24      H        0.36980    0.46130    0.90450    1.000
    C39      C        0.60875    0.37827    0.81729    1.000
    H25      H        0.61640    0.41470    0.80360    1.000
    H26      H        0.56970    0.37190    0.81460    1.000
    C40      C        0.63910    0.33640    0.78339    1.000
    H27      H        0.61470    0.30670    0.77350    1.000
    H28      H        0.65250    0.35320    0.75000    1.000
    O24      O        0.36850    0.47860    0.90800    1.000
    O25      O        0.09296    0.00958    0.10986    1.000
    O26      O        0.07079    0.96895    0.03320    1.000
    O27      O        0.23711    0.79179    0.19374    1.000
    O28      O        0.19993    0.73898    0.13203    1.000
    O29      O        0.13716    0.78047    0.06184    1.000
    C41      C        0.09209    0.96908    0.07813    1.000
    C42      C        0.12063    0.92052    0.09769    1.000
    C43      C        0.15205    0.92378    0.14352    1.000
    H29      H        0.15400    0.95640    0.16310    1.000
    C44      C        0.18028    0.87942    0.16036    1.000
    H30      H        0.20280    0.88200    0.19090    1.000
    C45      C        0.17627    0.83141    0.13353    1.000
    C46      C        0.20609    0.78372    0.15425    1.000
    C47      C        0.14449    0.82816    0.08835    1.000
    C48      C        0.11694    0.87229    0.07005    1.000
    H31      H        0.09550    0.86980    0.03870    1.000
    C49      C        0.18271    0.10875    0.12173    1.000
    H32      H        0.19640    0.11640    0.08530    1.000
    H33      H        0.18540    0.06970    0.12810    1.000
    C50      C        0.21661    0.13910    0.16360    1.000
    H34      H        0.22650    0.11470    0.19330    1.000
    H35      H        0.25000    0.15250    0.14680    1.000
    O30      O        0.09200    0.86850    0.02140    1.000
    O31      O        0.59296    0.49042    0.89014    1.000
    O32      O        0.57079    0.53105    0.96680    1.000
    O33      O        0.73711    0.70821    0.80626    1.000
    O34      O        0.69993    0.76102    0.86797    1.000
    O35      O        0.63716    0.71953    0.93816    1.000
    C51      C        0.59209    0.53092    0.92187    1.000
    C52      C        0.62063    0.57948    0.90231    1.000
    C53      C        0.65205    0.57622    0.85648    1.000
    H36      H        0.65400    0.54360    0.83690    1.000
    C54      C        0.68028    0.62058    0.83964    1.000
    H37      H        0.70280    0.61800    0.80910    1.000
    C55      C        0.67627    0.66859    0.86647    1.000
    C56      C        0.70609    0.71628    0.84575    1.000
    C57      C        0.64449    0.67184    0.91165    1.000
    C58      C        0.61694    0.62771    0.92995    1.000
    H38      H        0.59550    0.63020    0.96130    1.000
    C59      C        0.68271    0.39125    0.87827    1.000
    H39      H        0.69640    0.38360    0.91470    1.000
    H40      H        0.68540    0.43030    0.87190    1.000
    C60      C        0.71661    0.36090    0.83640    1.000
    H41      H        0.72650    0.38530    0.80670    1.000
    H42      H        0.75000    0.34750    0.85320    1.000
    O36      O        0.59200    0.63150    0.97860    1.000
    O37      O        0.40704    0.99042    0.60986    1.000
    O38      O        0.42921    0.03105    0.53320    1.000
    O39      O        0.26289    0.20821    0.69374    1.000
    O40      O        0.30007    0.26102    0.63203    1.000
    O41      O        0.36284    0.21953    0.56184    1.000
    C61      C        0.40791    0.03092    0.57813    1.000
    C62      C        0.37937    0.07948    0.59769    1.000
    C63      C        0.34795    0.07622    0.64352    1.000
    H43      H        0.34600    0.04360    0.66310    1.000
    C64      C        0.31972    0.12058    0.66036    1.000
    H44      H        0.29720    0.11800    0.69090    1.000
    C65      C        0.32373    0.16859    0.63353    1.000
    C66      C        0.29391    0.21628    0.65425    1.000
    C67      C        0.35551    0.17184    0.58835    1.000
    C68      C        0.38306    0.12771    0.57005    1.000
    H45      H        0.40450    0.13020    0.53870    1.000
    C69      C        0.31729    0.89125    0.62173    1.000
    H46      H        0.30360    0.88360    0.58530    1.000
    H47      H        0.31460    0.93030    0.62810    1.000
    C70      C        0.28339    0.86090    0.66360    1.000
    H48      H        0.27350    0.88530    0.69330    1.000
    H49      H        0.25000    0.84750    0.64680    1.000
    O42      O        0.40800    0.13150    0.52140    1.000
    O43      O        0.90704    0.50958    0.39014    1.000
    O44      O        0.92921    0.46895    0.46680    1.000
    O45      O        0.76289    0.29179    0.30626    1.000
    O46      O        0.80007    0.23898    0.36797    1.000
    O47      O        0.86284    0.28047    0.43816    1.000
    C71      C        0.90791    0.46908    0.42187    1.000
    C72      C        0.87937    0.42052    0.40231    1.000
    C73      C        0.84795    0.42378    0.35648    1.000
    H50      H        0.84600    0.45640    0.33690    1.000
    C74      C        0.81972    0.37942    0.33964    1.000
    H51      H        0.79720    0.38200    0.30910    1.000
    C75      C        0.82373    0.33141    0.36647    1.000
    C76      C        0.79391    0.28372    0.34575    1.000
    C77      C        0.85551    0.32816    0.41165    1.000
    C78      C        0.88306    0.37229    0.42995    1.000
    H52      H        0.90450    0.36980    0.46130    1.000
    C79      C        0.81729    0.60875    0.37827    1.000
    H53      H        0.80360    0.61640    0.41470    1.000
    H54      H        0.81460    0.56970    0.37190    1.000
    C80      C        0.78339    0.63910    0.33640    1.000
    H55      H        0.77350    0.61470    0.30670    1.000
    H56      H        0.75000    0.65250    0.35320    1.000
    O48      O        0.90800    0.36850    0.47860    1.000
    O49      O        0.10986    0.09296    0.00958    1.000
    O50      O        0.03320    0.07079    0.96895    1.000
    O51      O        0.19374    0.23711    0.79179    1.000
    O52      O        0.13203    0.19993    0.73898    1.000
    O53      O        0.06184    0.13716    0.78047    1.000
    C81      C        0.07813    0.09209    0.96908    1.000
    C82      C        0.09769    0.12063    0.92052    1.000
    C83      C        0.14352    0.15205    0.92378    1.000
    H57      H        0.16310    0.15400    0.95640    1.000
    C84      C        0.16036    0.18028    0.87942    1.000
    H58      H        0.19090    0.20280    0.88200    1.000
    C85      C        0.13353    0.17627    0.83141    1.000
    C86      C        0.15425    0.20609    0.78372    1.000
    C87      C        0.08835    0.14449    0.82816    1.000
    C88      C        0.07005    0.11694    0.87229    1.000
    H59      H        0.03870    0.09550    0.86980    1.000
    C89      C        0.12173    0.18271    0.10875    1.000
    H60      H        0.08530    0.19640    0.11640    1.000
    H61      H        0.12810    0.18540    0.06970    1.000
    C90      C        0.16360    0.21661    0.13910    1.000
    H62      H        0.19330    0.22650    0.11470    1.000
    H63      H        0.14680    0.25000    0.15250    1.000
    O54      O        0.02140    0.09200    0.86850    1.000
    O55      O        0.89014    0.59296    0.49042    1.000
    O56      O        0.96680    0.57079    0.53105    1.000
    O57      O        0.80626    0.73711    0.70821    1.000
    O58      O        0.86797    0.69993    0.76102    1.000
    O59      O        0.93816    0.63716    0.71953    1.000
    C91      C        0.92187    0.59209    0.53092    1.000
    C92      C        0.90231    0.62063    0.57948    1.000
    C93      C        0.85648    0.65205    0.57622    1.000
    H64      H        0.83690    0.65400    0.54360    1.000
    C94      C        0.83964    0.68028    0.62058    1.000
    H65      H        0.80910    0.70280    0.61800    1.000
    C95      C        0.86647    0.67627    0.66859    1.000
    C96      C        0.84575    0.70609    0.71628    1.000
    C97      C        0.91165    0.64449    0.67184    1.000
    C98      C        0.92995    0.61694    0.62771    1.000
    H66      H        0.96130    0.59550    0.63020    1.000
    C99      C        0.87827    0.68271    0.39125    1.000
    H67      H        0.91470    0.69640    0.38360    1.000
    H68      H        0.87190    0.68540    0.43030    1.000
    C100     C        0.83640    0.71661    0.36090    1.000
    H69      H        0.80670    0.72650    0.38530    1.000
    H70      H        0.85320    0.75000    0.34750    1.000
    O60      O        0.97860    0.59200    0.63150    1.000
    O61      O        0.60986    0.40704    0.99042    1.000
    O62      O        0.53320    0.42921    0.03105    1.000
    O63      O        0.69374    0.26289    0.20821    1.000
    O64      O        0.63203    0.30007    0.26102    1.000
    O65      O        0.56184    0.36284    0.21953    1.000
    C101     C        0.57813    0.40791    0.03092    1.000
    C102     C        0.59769    0.37937    0.07948    1.000
    C103     C        0.64352    0.34795    0.07622    1.000
    H71      H        0.66310    0.34600    0.04360    1.000
    C104     C        0.66036    0.31972    0.12058    1.000
    H72      H        0.69090    0.29720    0.11800    1.000
    C105     C        0.63353    0.32373    0.16859    1.000
    C106     C        0.65425    0.29391    0.21628    1.000
    C107     C        0.58835    0.35551    0.17184    1.000
    C108     C        0.57005    0.38306    0.12771    1.000
    H73      H        0.53870    0.40450    0.13020    1.000
    C109     C        0.62173    0.31729    0.89125    1.000
    H74      H        0.58530    0.30360    0.88360    1.000
    H75      H        0.62810    0.31460    0.93030    1.000
    C110     C        0.66360    0.28339    0.86090    1.000
    H76      H        0.69330    0.27350    0.88530    1.000
    H77      H        0.64680    0.25000    0.84750    1.000
    O66      O        0.52140    0.40800    0.13150    1.000
    O67      O        0.39014    0.90704    0.50958    1.000
    O68      O        0.46680    0.92921    0.46895    1.000
    O69      O        0.30626    0.76289    0.29179    1.000
    O70      O        0.36797    0.80007    0.23898    1.000
    O71      O        0.43816    0.86284    0.28047    1.000
    C111     C        0.42187    0.90791    0.46908    1.000
    C112     C        0.40231    0.87937    0.42052    1.000
    C113     C        0.35648    0.84795    0.42378    1.000
    H78      H        0.33690    0.84600    0.45640    1.000
    C114     C        0.33964    0.81972    0.37942    1.000
    H79      H        0.30910    0.79720    0.38200    1.000
    C115     C        0.36647    0.82373    0.33141    1.000
    C116     C        0.34575    0.79391    0.28372    1.000
    C117     C        0.41165    0.85551    0.32816    1.000
    C118     C        0.42995    0.88306    0.37229    1.000
    H80      H        0.46130    0.90450    0.36980    1.000
    C119     C        0.37827    0.81729    0.60875    1.000
    H81      H        0.41470    0.80360    0.61640    1.000
    H82      H        0.37190    0.81460    0.56970    1.000
    C120     C        0.33640    0.78339    0.63910    1.000
    H83      H        0.30670    0.77350    0.61470    1.000
    H84      H        0.35320    0.75000    0.65250    1.000
    O72      O        0.47860    0.90800    0.36850    1.000
    O73      O        0.99042    0.89014    0.90704    1.000
    O74      O        0.03105    0.96680    0.92921    1.000
    O75      O        0.20821    0.80626    0.76289    1.000
    O76      O        0.26102    0.86797    0.80007    1.000
    O77      O        0.21953    0.93816    0.86284    1.000
    C121     C        0.03092    0.92187    0.90791    1.000
    C122     C        0.07948    0.90231    0.87937    1.000
    C123     C        0.07622    0.85648    0.84795    1.000
    H85      H        0.04360    0.83690    0.84600    1.000
    C124     C        0.12058    0.83964    0.81972    1.000
    H86      H        0.11800    0.80910    0.79720    1.000
    C125     C        0.16859    0.86647    0.82373    1.000
    C126     C        0.21628    0.84575    0.79391    1.000
    C127     C        0.17184    0.91165    0.85551    1.000
    C128     C        0.12771    0.92995    0.88306    1.000
    H87      H        0.13020    0.96130    0.90450    1.000
    C129     C        0.89125    0.87827    0.81729    1.000
    H88      H        0.88360    0.91470    0.80360    1.000
    H89      H        0.93030    0.87190    0.81460    1.000
    C130     C        0.86090    0.83640    0.78339    1.000
    H90      H        0.88530    0.80670    0.77350    1.000
    H91      H        0.84750    0.85320    0.75000    1.000
    O78      O        0.13150    0.97860    0.90800    1.000
    O79      O        0.50958    0.10986    0.40704    1.000
    O80      O        0.46895    0.03320    0.42921    1.000
    O81      O        0.29179    0.19374    0.26289    1.000
    O82      O        0.23898    0.13203    0.30007    1.000
    O83      O        0.28047    0.06184    0.36284    1.000
    C131     C        0.46908    0.07813    0.40791    1.000
    C132     C        0.42052    0.09769    0.37937    1.000
    C133     C        0.42378    0.14352    0.34795    1.000
    H92      H        0.45640    0.16310    0.34600    1.000
    C134     C        0.37942    0.16036    0.31972    1.000
    H93      H        0.38200    0.19090    0.29720    1.000
    C135     C        0.33141    0.13353    0.32373    1.000
    C136     C        0.28372    0.15425    0.29391    1.000
    C137     C        0.32816    0.08835    0.35551    1.000
    C138     C        0.37229    0.07005    0.38306    1.000
    H94      H        0.36980    0.03870    0.40450    1.000
    C139     C        0.60875    0.12173    0.31729    1.000
    H95      H        0.61640    0.08530    0.30360    1.000
    H96      H        0.56970    0.12810    0.31460    1.000
    C140     C        0.63910    0.16360    0.28339    1.000
    H97      H        0.61470    0.19330    0.27350    1.000
    H98      H        0.65250    0.14680    0.25000    1.000
    O84      O        0.36850    0.02140    0.40800    1.000
    O85      O        0.00958    0.39014    0.59296    1.000
    O86      O        0.96895    0.46680    0.57079    1.000
    O87      O        0.79179    0.30626    0.73711    1.000
    O88      O        0.73898    0.36797    0.69993    1.000
    O89      O        0.78047    0.43816    0.63716    1.000
    C141     C        0.96908    0.42187    0.59209    1.000
    C142     C        0.92052    0.40231    0.62063    1.000
    C143     C        0.92378    0.35648    0.65205    1.000
    H99      H        0.95640    0.33690    0.65400    1.000
    C144     C        0.87942    0.33964    0.68028    1.000
    H100     H        0.88200    0.30910    0.70280    1.000
    C145     C        0.83141    0.36647    0.67627    1.000
    C146     C        0.78372    0.34575    0.70609    1.000
    C147     C        0.82816    0.41165    0.64449    1.000
    C148     C        0.87229    0.42995    0.61694    1.000
    H101     H        0.86980    0.46130    0.59550    1.000
    C149     C        0.10875    0.37827    0.68271    1.000
    H102     H        0.11640    0.41470    0.69640    1.000
    H103     H        0.06970    0.37190    0.68540    1.000
    C150     C        0.13910    0.33640    0.71661    1.000
    H104     H        0.11470    0.30670    0.72650    1.000
    H105     H        0.15250    0.35320    0.75000    1.000
    O90      O        0.86850    0.47860    0.59200    1.000
    O91      O        0.49042    0.60986    0.09296    1.000
    O92      O        0.53105    0.53320    0.07079    1.000
    O93      O        0.70821    0.69374    0.23711    1.000
    O94      O        0.76102    0.63203    0.19993    1.000
    O95      O        0.71953    0.56184    0.13716    1.000
    C151     C        0.53092    0.57813    0.09209    1.000
    C152     C        0.57948    0.59769    0.12063    1.000
    C153     C        0.57622    0.64352    0.15205    1.000
    H106     H        0.54360    0.66310    0.15400    1.000
    C154     C        0.62058    0.66036    0.18028    1.000
    H107     H        0.61800    0.69090    0.20280    1.000
    C155     C        0.66859    0.63353    0.17627    1.000
    C156     C        0.71628    0.65425    0.20609    1.000
    C157     C        0.67184    0.58835    0.14449    1.000
    C158     C        0.62771    0.57005    0.11694    1.000
    H108     H        0.63020    0.53870    0.09550    1.000
    C159     C        0.39125    0.62173    0.18271    1.000
    H109     H        0.38360    0.58530    0.19640    1.000
    H110     H        0.43030    0.62810    0.18540    1.000
    C160     C        0.36090    0.66360    0.21661    1.000
    H111     H        0.38530    0.69330    0.22650    1.000
    H112     H        0.34750    0.64680    0.25000    1.000
    O96      O        0.63150    0.52140    0.09200    1.000
    O97      O        0.90704    0.99042    0.89014    1.000
    O98      O        0.92921    0.03105    0.96680    1.000
    O99      O        0.76289    0.20821    0.80626    1.000
    O100     O        0.80007    0.26102    0.86797    1.000
    O101     O        0.86284    0.21953    0.93816    1.000
    C161     C        0.90791    0.03092    0.92187    1.000
    C162     C        0.87937    0.07948    0.90231    1.000
    C163     C        0.84795    0.07622    0.85648    1.000
    H113     H        0.84600    0.04360    0.83690    1.000
    C164     C        0.81972    0.12058    0.83964    1.000
    H114     H        0.79720    0.11800    0.80910    1.000
    C165     C        0.82373    0.16859    0.86647    1.000
    C166     C        0.79391    0.21628    0.84575    1.000
    C167     C        0.85551    0.17184    0.91165    1.000
    C168     C        0.88306    0.12771    0.92995    1.000
    H115     H        0.90450    0.13020    0.96130    1.000
    C169     C        0.81729    0.89125    0.87827    1.000
    H116     H        0.80360    0.88360    0.91470    1.000
    H117     H        0.81460    0.93030    0.87190    1.000
    C170     C        0.78339    0.86090    0.83640    1.000
    H118     H        0.77350    0.88530    0.80670    1.000
    H119     H        0.75000    0.84750    0.85320    1.000
    O102     O        0.90800    0.13150    0.97860    1.000
    O103     O        0.40704    0.50958    0.10986    1.000
    O104     O        0.42921    0.46895    0.03320    1.000
    O105     O        0.26289    0.29179    0.19374    1.000
    O106     O        0.30007    0.23898    0.13203    1.000
    O107     O        0.36284    0.28047    0.06184    1.000
    C171     C        0.40791    0.46908    0.07813    1.000
    C172     C        0.37937    0.42052    0.09769    1.000
    C173     C        0.34795    0.42378    0.14352    1.000
    H120     H        0.34600    0.45640    0.16310    1.000
    C174     C        0.31972    0.37942    0.16036    1.000
    H121     H        0.29720    0.38200    0.19090    1.000
    C175     C        0.32373    0.33141    0.13353    1.000
    C176     C        0.29391    0.28372    0.15425    1.000
    C177     C        0.35551    0.32816    0.08835    1.000
    C178     C        0.38306    0.37229    0.07005    1.000
    H122     H        0.40450    0.36980    0.03870    1.000
    C179     C        0.31729    0.60875    0.12173    1.000
    H123     H        0.30360    0.61640    0.08530    1.000
    H124     H        0.31460    0.56970    0.12810    1.000
    C180     C        0.28339    0.63910    0.16360    1.000
    H125     H        0.27350    0.61470    0.19330    1.000
    H126     H        0.25000    0.65250    0.14680    1.000
    O108     O        0.40800    0.36850    0.02140    1.000
    O109     O        0.59296    0.00958    0.39014    1.000
    O110     O        0.57079    0.96895    0.46680    1.000
    O111     O        0.73711    0.79179    0.30626    1.000
    O112     O        0.69993    0.73898    0.36797    1.000
    O113     O        0.63716    0.78047    0.43816    1.000
    C181     C        0.59209    0.96908    0.42187    1.000
    C182     C        0.62063    0.92052    0.40231    1.000
    C183     C        0.65205    0.92378    0.35648    1.000
    H127     H        0.65400    0.95640    0.33690    1.000
    C184     C        0.68028    0.87942    0.33964    1.000
    H128     H        0.70280    0.88200    0.30910    1.000
    C185     C        0.67627    0.83141    0.36647    1.000
    C186     C        0.70609    0.78372    0.34575    1.000
    C187     C        0.64449    0.82816    0.41165    1.000
    C188     C        0.61694    0.87229    0.42995    1.000
    H129     H        0.59550    0.86980    0.46130    1.000
    C189     C        0.68271    0.10875    0.37827    1.000
    H130     H        0.69640    0.11640    0.41470    1.000
    H131     H        0.68540    0.06970    0.37190    1.000
    C190     C        0.71661    0.13910    0.33640    1.000
    H132     H        0.72650    0.11470    0.30670    1.000
    H133     H        0.75000    0.15250    0.35320    1.000
    O114     O        0.59200    0.86850    0.47860    1.000
    O115     O        0.09296    0.49042    0.60986    1.000
    O116     O        0.07079    0.53105    0.53320    1.000
    O117     O        0.23711    0.70821    0.69374    1.000
    O118     O        0.19993    0.76102    0.63203    1.000
    O119     O        0.13716    0.71953    0.56184    1.000
    C191     C        0.09209    0.53092    0.57813    1.000
    C192     C        0.12063    0.57948    0.59769    1.000
    C193     C        0.15205    0.57622    0.64352    1.000
    H134     H        0.15400    0.54360    0.66310    1.000
    C194     C        0.18028    0.62058    0.66036    1.000
    H135     H        0.20280    0.61800    0.69090    1.000
    C195     C        0.17627    0.66859    0.63353    1.000
    C196     C        0.20609    0.71628    0.65425    1.000
    C197     C        0.14449    0.67184    0.58835    1.000
    C198     C        0.11694    0.62771    0.57005    1.000
    H136     H        0.09550    0.63020    0.53870    1.000
    C199     C        0.18271    0.39125    0.62173    1.000
    H137     H        0.19640    0.38360    0.58530    1.000
    H138     H        0.18540    0.43030    0.62810    1.000
    C200     C        0.21661    0.36090    0.66360    1.000
    H139     H        0.22650    0.38530    0.69330    1.000
    H140     H        0.25000    0.34750    0.64680    1.000
    O120     O        0.09200    0.63150    0.52140    1.000
    O121     O        0.89014    0.90704    0.99042    1.000
    O122     O        0.96680    0.92921    0.03105    1.000
    O123     O        0.80626    0.76289    0.20821    1.000
    O124     O        0.86797    0.80007    0.26102    1.000
    O125     O        0.93816    0.86284    0.21953    1.000
    C201     C        0.92187    0.90791    0.03092    1.000
    C202     C        0.90231    0.87937    0.07948    1.000
    C203     C        0.85648    0.84795    0.07622    1.000
    H141     H        0.83690    0.84600    0.04360    1.000
    C204     C        0.83964    0.81972    0.12058    1.000
    H142     H        0.80910    0.79720    0.11800    1.000
    C205     C        0.86647    0.82373    0.16859    1.000
    C206     C        0.84575    0.79391    0.21628    1.000
    C207     C        0.91165    0.85551    0.17184    1.000
    C208     C        0.92995    0.88306    0.12771    1.000
    H143     H        0.96130    0.90450    0.13020    1.000
    C209     C        0.87827    0.81729    0.89125    1.000
    H144     H        0.91470    0.80360    0.88360    1.000
    H145     H        0.87190    0.81460    0.93030    1.000
    C210     C        0.83640    0.78339    0.86090    1.000
    H146     H        0.80670    0.77350    0.88530    1.000
    H147     H        0.85320    0.75000    0.84750    1.000
    O126     O        0.97860    0.90800    0.13150    1.000
    O127     O        0.10986    0.40704    0.50958    1.000
    O128     O        0.03320    0.42921    0.46895    1.000
    O129     O        0.19374    0.26289    0.29179    1.000
    O130     O        0.13203    0.30007    0.23898    1.000
    O131     O        0.06184    0.36284    0.28047    1.000
    C211     C        0.07813    0.40791    0.46908    1.000
    C212     C        0.09769    0.37937    0.42052    1.000
    C213     C        0.14352    0.34795    0.42378    1.000
    H148     H        0.16310    0.34600    0.45640    1.000
    C214     C        0.16036    0.31972    0.37942    1.000
    H149     H        0.19090    0.29720    0.38200    1.000
    C215     C        0.13353    0.32373    0.33141    1.000
    C216     C        0.15425    0.29391    0.28372    1.000
    C217     C        0.08835    0.35551    0.32816    1.000
    C218     C        0.07005    0.38306    0.37229    1.000
    H150     H        0.03870    0.40450    0.36980    1.000
    C219     C        0.12173    0.31729    0.60875    1.000
    H151     H        0.08530    0.30360    0.61640    1.000
    H152     H        0.12810    0.31460    0.56970    1.000
    C220     C        0.16360    0.28339    0.63910    1.000
    H153     H        0.19330    0.27350    0.61470    1.000
    H154     H        0.14680    0.25000    0.65250    1.000
    O132     O        0.02140    0.40800    0.36850    1.000
    O133     O        0.39014    0.59296    0.00958    1.000
    O134     O        0.46680    0.57079    0.96895    1.000
    O135     O        0.30626    0.73711    0.79179    1.000
    O136     O        0.36797    0.69993    0.73898    1.000
    O137     O        0.43816    0.63716    0.78047    1.000
    C221     C        0.42187    0.59209    0.96908    1.000
    C222     C        0.40231    0.62063    0.92052    1.000
    C223     C        0.35648    0.65205    0.92378    1.000
    H155     H        0.33690    0.65400    0.95640    1.000
    C224     C        0.33964    0.68028    0.87942    1.000
    H156     H        0.30910    0.70280    0.88200    1.000
    C225     C        0.36647    0.67627    0.83141    1.000
    C226     C        0.34575    0.70609    0.78372    1.000
    C227     C        0.41165    0.64449    0.82816    1.000
    C228     C        0.42995    0.61694    0.87229    1.000
    H157     H        0.46130    0.59550    0.86980    1.000
    C229     C        0.37827    0.68271    0.10875    1.000
    H158     H        0.41470    0.69640    0.11640    1.000
    H159     H        0.37190    0.68540    0.06970    1.000
    C230     C        0.33640    0.71661    0.13910    1.000
    H160     H        0.30670    0.72650    0.11470    1.000
    H161     H        0.35320    0.75000    0.15250    1.000
    O138     O        0.47860    0.59200    0.86850    1.000
    O139     O        0.60986    0.09296    0.49042    1.000
    O140     O        0.53320    0.07079    0.53105    1.000
    O141     O        0.69374    0.23711    0.70821    1.000
    O142     O        0.63203    0.19993    0.76102    1.000
    O143     O        0.56184    0.13716    0.71953    1.000
    C231     C        0.57813    0.09209    0.53092    1.000
    C232     C        0.59769    0.12063    0.57948    1.000
    C233     C        0.64352    0.15205    0.57622    1.000
    H162     H        0.66310    0.15400    0.54360    1.000
    C234     C        0.66036    0.18028    0.62058    1.000
    H163     H        0.69090    0.20280    0.61800    1.000
    C235     C        0.63353    0.17627    0.66859    1.000
    C236     C        0.65425    0.20609    0.71628    1.000
    C237     C        0.58835    0.14449    0.67184    1.000
    C238     C        0.57005    0.11694    0.62771    1.000
    H164     H        0.53870    0.09550    0.63020    1.000
    C239     C        0.62173    0.18271    0.39125    1.000
    H165     H        0.58530    0.19640    0.38360    1.000
    H166     H        0.62810    0.18540    0.43030    1.000
    C240     C        0.66360    0.21661    0.36090    1.000
    H167     H        0.69330    0.22650    0.38530    1.000
    H168     H        0.64680    0.25000    0.34750    1.000
    O144     O        0.52140    0.09200    0.63150    1.000
    Zn1      Zn       0.07886    0.07886    0.07886    1.000
    Zn2      Zn       0.23183    0.23183    0.23183    1.000
    N1       N        0.12591    0.12591    0.12591    1.000
    N2       N        0.18471    0.18471    0.18471    1.000
    Zn3      Zn       0.42114    0.92114    0.57886    1.000
    Zn4      Zn       0.26817    0.76817    0.73183    1.000
    N3       N        0.37409    0.87409    0.62591    1.000
    N4       N        0.31529    0.81529    0.68471    1.000
    Zn5      Zn       0.92114    0.57886    0.42114    1.000
    Zn6      Zn       0.76817    0.73183    0.26817    1.000
    N5       N        0.87409    0.62591    0.37409    1.000
    N6       N        0.81529    0.68471    0.31529    1.000
    Zn7      Zn       0.57886    0.42114    0.92114    1.000
    Zn8      Zn       0.73183    0.26817    0.76817    1.000
    N7       N        0.62591    0.37409    0.87409    1.000
    N8       N        0.68471    0.31529    0.81529    1.000
    Zn9      Zn       0.92114    0.92114    0.92114    1.000
    Zn10     Zn       0.76817    0.76817    0.76817    1.000
    N9       N        0.87409    0.87409    0.87409    1.000
    N10      N        0.81529    0.81529    0.81529    1.000
    Zn11     Zn       0.57886    0.07886    0.42114    1.000
    Zn12     Zn       0.73183    0.23183    0.26817    1.000
    N11      N        0.62591    0.12591    0.37409    1.000
    N12      N        0.68471    0.18471    0.31529    1.000
    Zn13     Zn       0.07886    0.42114    0.57886    1.000
    Zn14     Zn       0.23183    0.26817    0.73183    1.000
    N13      N        0.12591    0.37409    0.62591    1.000
    N14      N        0.18471    0.31529    0.68471    1.000
    Zn15     Zn       0.42114    0.57886    0.07886    1.000
    Zn16     Zn       0.26817    0.73183    0.23183    1.000
    N15      N        0.37409    0.62591    0.12591    1.000
    N16      N        0.31529    0.68471    0.18471    1.000
    Zn17     Zn       0.00000    0.00000    0.00000    1.000
    Zn18     Zn       0.50000    0.00000    0.50000    1.000
    Zn19     Zn       0.00000    0.50000    0.50000    1.000
    Zn20     Zn       0.50000    0.50000    0.00000    1.000
