# CIF file generated by openbabel 3.1.0, see https://openbabel.org
data_I
_chemical_name_common 'image0'
_cell_length_a 8.7011
_cell_length_b 20.857
_cell_length_c 8.2868
_cell_angle_alpha 90
_cell_angle_beta 90
_cell_angle_gamma 90
_space_group_name_H-M_alt 'P 1'
_space_group_name_Hall 'P 1'
loop_
    _symmetry_equiv_pos_as_xyz
    x,y,z
loop_
    _atom_site_label
    _atom_site_type_symbol
    _atom_site_fract_x
    _atom_site_fract_y
    _atom_site_fract_z
    _atom_site_occupancy
    N1       N        0.61930    0.92720    0.91770    1.000
    C1       C        0.68480    0.87370    0.87230    1.000
    H1       H        0.69860    0.86110    0.76430    1.000
    H2       H        0.87450    0.77140    0.09590    1.000
    N2       N        0.11930    0.42720    0.91770    1.000
    C2       C        0.18480    0.37370    0.87230    1.000
    H3       H        0.19860    0.36110    0.76430    1.000
    H4       H        0.37450    0.27140    0.09590    1.000
    N3       N        0.38070    0.07280    0.91770    1.000
    C3       C        0.31520    0.12630    0.87230    1.000
    H5       H        0.30140    0.13890    0.76430    1.000
    H6       H        0.12550    0.22860    0.09590    1.000
    N4       N        0.88070    0.57280    0.91770    1.000
    C4       C        0.81520    0.62630    0.87230    1.000
    H7       H        0.80140    0.63890    0.76430    1.000
    H8       H        0.62550    0.72860    0.09590    1.000
    N5       N        0.38070    0.92720    0.58230    1.000
    C5       C        0.31520    0.87370    0.62770    1.000
    H9       H        0.30140    0.86110    0.73570    1.000
    H10      H        0.12550    0.77140    0.40410    1.000
    N6       N        0.88070    0.42720    0.58230    1.000
    C6       C        0.81520    0.37370    0.62770    1.000
    H11      H        0.80140    0.36110    0.73570    1.000
    H12      H        0.62550    0.27140    0.40410    1.000
    N7       N        0.61930    0.07280    0.58230    1.000
    C7       C        0.68480    0.12630    0.62770    1.000
    H13      H        0.69860    0.13890    0.73570    1.000
    H14      H        0.87450    0.22860    0.40410    1.000
    N8       N        0.11930    0.57280    0.58230    1.000
    C8       C        0.18480    0.62630    0.62770    1.000
    H15      H        0.19860    0.63890    0.73570    1.000
    H16      H        0.37450    0.72860    0.40410    1.000
    N9       N        0.38070    0.07280    0.08230    1.000
    C9       C        0.31520    0.12630    0.12770    1.000
    H17      H        0.30140    0.13890    0.23570    1.000
    H18      H        0.12550    0.22860    0.90410    1.000
    N10      N        0.88070    0.57280    0.08230    1.000
    C10      C        0.81520    0.62630    0.12770    1.000
    H19      H        0.80140    0.63890    0.23570    1.000
    H20      H        0.62550    0.72860    0.90410    1.000
    N11      N        0.61930    0.92720    0.08230    1.000
    C11      C        0.68480    0.87370    0.12770    1.000
    H21      H        0.69860    0.86110    0.23570    1.000
    H22      H        0.87450    0.77140    0.90410    1.000
    N12      N        0.11930    0.42720    0.08230    1.000
    C12      C        0.18480    0.37370    0.12770    1.000
    H23      H        0.19860    0.36110    0.23570    1.000
    H24      H        0.37450    0.27140    0.90410    1.000
    N13      N        0.61930    0.07280    0.41770    1.000
    C13      C        0.68480    0.12630    0.37230    1.000
    H25      H        0.69860    0.13890    0.26430    1.000
    H26      H        0.87450    0.22860    0.59590    1.000
    N14      N        0.11930    0.57280    0.41770    1.000
    C14      C        0.18480    0.62630    0.37230    1.000
    H27      H        0.19860    0.63890    0.26430    1.000
    H28      H        0.37450    0.72860    0.59590    1.000
    N15      N        0.38070    0.92720    0.41770    1.000
    C15      C        0.31520    0.87370    0.37230    1.000
    H29      H        0.30140    0.86110    0.26430    1.000
    H30      H        0.12550    0.77140    0.59590    1.000
    N16      N        0.88070    0.42720    0.41770    1.000
    C16      C        0.81520    0.37370    0.37230    1.000
    H31      H        0.80140    0.36110    0.26430    1.000
    H32      H        0.62550    0.27140    0.59590    1.000
    Ag1      Ag       0.50000    0.00000    0.75000    1.000
    Ag2      Ag       0.00000    0.50000    0.75000    1.000
    Ag3      Ag       0.50000    0.00000    0.25000    1.000
    Ag4      Ag       0.00000    0.50000    0.25000    1.000
    N17      N        0.72950    0.83910    0.00000    1.000
    C17      C        0.80930    0.77540    0.00000    1.000
    N18      N        0.22950    0.33910    0.00000    1.000
    C18      C        0.30930    0.27540    0.00000    1.000
    N19      N        0.27050    0.16090    0.00000    1.000
    C19      C        0.19070    0.22460    0.00000    1.000
    N20      N        0.77050    0.66090    0.00000    1.000
    C20      C        0.69070    0.72460    0.00000    1.000
    N21      N        0.27050    0.83910    0.50000    1.000
    C21      C        0.19070    0.77540    0.50000    1.000
    N22      N        0.77050    0.33910    0.50000    1.000
    C22      C        0.69070    0.27540    0.50000    1.000
    N23      N        0.72950    0.16090    0.50000    1.000
    C23      C        0.80930    0.22460    0.50000    1.000
    N24      N        0.22950    0.66090    0.50000    1.000
    C24      C        0.30930    0.72460    0.50000    1.000
