# CIF file generated by openbabel 3.1.0, see https://openbabel.org
data_I
_chemical_name_common 'image0'
_cell_length_a 9.055
_cell_length_b 9.055
_cell_length_c 14.4468
_cell_angle_alpha 90
_cell_angle_beta 90
_cell_angle_gamma 120
_space_group_name_H-M_alt 'P 1'
_space_group_name_Hall 'P 1'
loop_
    _symmetry_equiv_pos_as_xyz
    x,y,z
loop_
    _atom_site_label
    _atom_site_type_symbol
    _atom_site_fract_x
    _atom_site_fract_y
    _atom_site_fract_z
    _atom_site_occupancy
    Si1      Si       0.66667    0.33334    0.20412    1.000
    Si2      Si       0.66667    0.33334    0.60310    1.000
    Si3      Si       0.33333    0.66666    0.10310    1.000
    Si4      Si       0.33333    0.66666    0.70412    1.000
    I1       I        0.66667    0.33334    0.40370    1.000
    I2       I        0.40176    0.00001    0.15366    1.000
    I3       I        0.40175    0.40176    0.65366    1.000
    I4       I        0.33333    0.66666    0.90370    1.000
    I5       I        0.59825    0.59824    0.15366    1.000
    I6       I        0.99999    0.40175    0.15366    1.000
    I7       I        0.59824    0.99999    0.65366    1.000
    I8       I        0.00001    0.59825    0.65366    1.000
