# CIF file generated by openbabel 3.1.0, see https://openbabel.org
data_I
_chemical_name_common 'image0'
_cell_length_a 10.521
_cell_length_b 10.426
_cell_length_c 6.202
_cell_angle_alpha 90
_cell_angle_beta 115
_cell_angle_gamma 90
_space_group_name_H-M_alt 'P 1'
_space_group_name_Hall 'P 1'
loop_
    _symmetry_equiv_pos_as_xyz
    x,y,z
loop_
    _atom_site_label
    _atom_site_type_symbol
    _atom_site_fract_x
    _atom_site_fract_y
    _atom_site_fract_z
    _atom_site_occupancy
    C1       C        0.31440    0.20980    0.54600    1.000
    H1       H        0.39540    0.26340    0.57450    1.000
    H2       H        0.32690    0.17130    0.69610    1.000
    N1       N        0.30500    0.10830    0.37600    1.000
    H3       H        0.28710    0.14360    0.23330    1.000
    H4       H        0.23380    0.05510    0.35730    1.000
    C2       C        0.81440    0.70980    0.54600    1.000
    H5       H        0.89540    0.76340    0.57450    1.000
    H6       H        0.82690    0.67130    0.69610    1.000
    N2       N        0.80500    0.60830    0.37600    1.000
    H7       H        0.78710    0.64360    0.23330    1.000
    H8       H        0.73380    0.55510    0.35730    1.000
    C3       C        0.68560    0.20980    0.95400    1.000
    H9       H        0.60460    0.26340    0.92550    1.000
    H10      H        0.67310    0.17130    0.80390    1.000
    N3       N        0.69500    0.10830    0.12400    1.000
    H11      H        0.71290    0.14360    0.26670    1.000
    H12      H        0.76620    0.05510    0.14270    1.000
    C4       C        0.18560    0.70980    0.95400    1.000
    H13      H        0.10460    0.76340    0.92550    1.000
    H14      H        0.17310    0.67130    0.80390    1.000
    N4       N        0.19500    0.60830    0.12400    1.000
    H15      H        0.21290    0.64360    0.26670    1.000
    H16      H        0.26620    0.55510    0.14270    1.000
    C5       C        0.68560    0.79020    0.45400    1.000
    H17      H        0.60460    0.73660    0.42550    1.000
    H18      H        0.67310    0.82870    0.30390    1.000
    N5       N        0.69500    0.89170    0.62400    1.000
    H19      H        0.71290    0.85640    0.76670    1.000
    H20      H        0.76620    0.94490    0.64270    1.000
    C6       C        0.18560    0.29020    0.45400    1.000
    H21      H        0.10460    0.23660    0.42550    1.000
    H22      H        0.17310    0.32870    0.30390    1.000
    N6       N        0.19500    0.39170    0.62400    1.000
    H23      H        0.21290    0.35640    0.76670    1.000
    H24      H        0.26620    0.44490    0.64270    1.000
    C7       C        0.31440    0.79020    0.04600    1.000
    H25      H        0.39540    0.73660    0.07450    1.000
    H26      H        0.32690    0.82870    0.19610    1.000
    N7       N        0.30500    0.89170    0.87600    1.000
    H27      H        0.28710    0.85640    0.73330    1.000
    H28      H        0.23380    0.94490    0.85730    1.000
    C8       C        0.81440    0.29020    0.04600    1.000
    H29      H        0.89540    0.23660    0.07450    1.000
    H30      H        0.82690    0.32870    0.19610    1.000
    N8       N        0.80500    0.39170    0.87600    1.000
    H31      H        0.78710    0.35640    0.73330    1.000
    H32      H        0.73380    0.44490    0.85730    1.000
    Ag1      Ag       0.50000    0.00000    0.50000    1.000
    Ag2      Ag       0.00000    0.50000    0.50000    1.000
    Ag3      Ag       0.50000    0.00000    0.00000    1.000
    Ag4      Ag       0.00000    0.50000    0.00000    1.000
