# CIF file generated by openbabel 3.1.0, see https://openbabel.org
data_I
_chemical_name_common 'image0'
_cell_length_a 8.2881
_cell_length_b 8.2881
_cell_length_c 10.566
_cell_angle_alpha 90
_cell_angle_beta 90
_cell_angle_gamma 120
_space_group_name_H-M_alt 'P 1'
_space_group_name_Hall 'P 1'
loop_
    _symmetry_equiv_pos_as_xyz
    x,y,z
loop_
    _atom_site_label
    _atom_site_type_symbol
    _atom_site_fract_x
    _atom_site_fract_y
    _atom_site_fract_z
    _atom_site_occupancy
    Zn1      Zn       0.58351    0.86864    0.99537    1.000
    O1       O        0.75190    0.80860    0.11320    1.000
    H1       H        0.68600    0.76500    0.18000    1.000
    O2       O        0.52220    0.62530    0.91030    1.000
    H2       H        0.53800    0.62000    0.83100    1.000
    H3       H        0.11890    0.09070    0.37850    1.000
    H4       H        0.92470    0.04800    0.37850    1.000
    C1       C        0.95500    0.85700    0.44720    1.000
    H5       H        0.06870    0.85990    0.47930    1.000
    H6       H        0.87110    0.73260    0.41020    1.000
    Zn2      Zn       0.13136    0.71487    0.99537    1.000
    O3       O        0.19140    0.94330    0.11320    1.000
    H7       H        0.23500    0.92100    0.18000    1.000
    O4       O        0.37470    0.89690    0.91030    1.000
    H8       H        0.38000    0.91800    0.83100    1.000
    H9       H        0.90930    0.02820    0.37850    1.000
    H10      H        0.95200    0.87670    0.37850    1.000
    C2       C        0.14300    0.09800    0.44720    1.000
    H11      H        0.14010    0.20880    0.47930    1.000
    H12      H        0.26740    0.13850    0.41020    1.000
    Zn3      Zn       0.28513    0.41649    0.99537    1.000
    O5       O        0.05670    0.24810    0.11320    1.000
    H13      H        0.07900    0.31400    0.18000    1.000
    O6       O        0.10310    0.47780    0.91030    1.000
    H14      H        0.08200    0.46200    0.83100    1.000
    H15      H        0.97180    0.88110    0.37850    1.000
    H16      H        0.12330    0.07530    0.37850    1.000
    C3       C        0.90200    0.04500    0.44720    1.000
    H17      H        0.79120    0.93130    0.47930    1.000
    H18      H        0.86150    0.12890    0.41020    1.000
    Zn4      Zn       0.41649    0.13136    0.00463    1.000
    O7       O        0.24810    0.19140    0.88680    1.000
    H19      H        0.31400    0.23500    0.82000    1.000
    O8       O        0.47780    0.37470    0.08970    1.000
    H20      H        0.46200    0.38000    0.16900    1.000
    H21      H        0.88110    0.90930    0.62150    1.000
    H22      H        0.07530    0.95200    0.62150    1.000
    C4       C        0.04500    0.14300    0.55280    1.000
    H23      H        0.93130    0.14010    0.52070    1.000
    H24      H        0.12890    0.26740    0.58980    1.000
    Zn5      Zn       0.86864    0.28513    0.00463    1.000
    O9       O        0.80860    0.05670    0.88680    1.000
    H25      H        0.76500    0.07900    0.82000    1.000
    O10      O        0.62530    0.10310    0.08970    1.000
    H26      H        0.62000    0.08200    0.16900    1.000
    H27      H        0.09070    0.97180    0.62150    1.000
    H28      H        0.04800    0.12330    0.62150    1.000
    C5       C        0.85700    0.90200    0.55280    1.000
    H29      H        0.85990    0.79120    0.52070    1.000
    H30      H        0.73260    0.86150    0.58980    1.000
    Zn6      Zn       0.71487    0.58351    0.00463    1.000
    O11      O        0.94330    0.75190    0.88680    1.000
    H31      H        0.92100    0.68600    0.82000    1.000
    O12      O        0.89690    0.52220    0.08970    1.000
    H32      H        0.91800    0.53800    0.16900    1.000
    H33      H        0.02820    0.11890    0.62150    1.000
    H34      H        0.87670    0.92470    0.62150    1.000
    C6       C        0.09800    0.95500    0.55280    1.000
    H35      H        0.20880    0.06870    0.52070    1.000
    H36      H        0.13850    0.87110    0.58980    1.000
    Zn7      Zn       0.00000    0.00000    0.16974    1.000
    N1       N        0.00000    0.00000    0.35710    1.000
    Zn8      Zn       0.00000    0.00000    0.83026    1.000
    N2       N        0.00000    0.00000    0.64290    1.000
