# CIF file generated by openbabel 3.1.0, see https://openbabel.org
data_I
_chemical_name_common 'image0'
_cell_length_a 14.1504
_cell_length_b 19.257
_cell_length_c 19.43
_cell_angle_alpha 69.873
_cell_angle_beta 82.011
_cell_angle_gamma 75.484
_space_group_name_H-M_alt 'P 1'
_space_group_name_Hall 'P 1'
loop_
    _symmetry_equiv_pos_as_xyz
    x,y,z
loop_
    _atom_site_label
    _atom_site_type_symbol
    _atom_site_fract_x
    _atom_site_fract_y
    _atom_site_fract_z
    _atom_site_occupancy
    Zn1      Zn       0.14162    0.69482    0.07492    1.000
    Zn2      Zn       0.64648    0.87853    0.71009    1.000
    Zn3      Zn       0.65016    0.47337    0.42777    1.000
    C1       C        0.74900    0.87124    0.83751    1.000
    H1       H        0.69210    0.90530    0.84460    1.000
    O1       O        0.69393    0.79488    0.66766    1.000
    O2       O        0.54488    0.84442    0.62735    1.000
    O3       O        0.65850    0.97134    0.63065    1.000
    C2       C        0.38490    0.59009    0.31822    1.000
    H2       H        0.33260    0.62860    0.32370    1.000
    C3       C        0.45810    0.55915    0.36744    1.000
    H3       H        0.45440    0.57820    0.40590    1.000
    C4       C        0.53860    0.47478    0.30688    1.000
    H4       H        0.58990    0.43490    0.30320    1.000
    O4       O        0.60732    0.55435    0.47305    1.000
    O5       O        0.75725    0.50603    0.51297    1.000
    C5       C        0.74460    0.63029    0.56437    1.000
    H5       H        0.80670    0.60050    0.56080    1.000
    O6       O        0.65724    0.37478    0.50240    1.000
    O7       O        0.70380    0.33604    0.40571    1.000
    C6       C        0.69610    0.18490    0.49320    1.000
    H6       H        0.72110    0.19260    0.44490    1.000
    C7       C        0.90410    0.79365    0.88045    1.000
    N1       N        0.14839    0.74672    0.96186    1.000
    C8       C        0.39880    0.78576    0.88992    1.000
    C9       C        0.47580    0.88769    0.82273    1.000
    H7       H        0.47960    0.93790    0.81180    1.000
    N2       N        0.53968    0.84455    0.78713    1.000
    N3       N        0.76067    0.84977    0.77759    1.000
    C10      C        0.55980    0.72000    0.57312    1.000
    C11      C        0.73040    0.68810    0.59402    1.000
    C12      C        0.63330    0.02230    0.65860    1.000
    C13      C        0.64670    0.10164    0.60894    1.000
    N4       N        0.29237    0.67305    0.07258    1.000
    C14      C        0.39200    0.56154    0.25978    1.000
    N5       N        0.53496    0.50232    0.36213    1.000
    C15      C        0.46860    0.50366    0.25514    1.000
    H8       H        0.47380    0.48360    0.21720    1.000
    N6       N        0.14455    0.61465    0.17880    1.000
    C16      C        0.89720    0.57144    0.24869    1.000
    N7       N        0.75469    0.51000    0.34936    1.000
    C17      C        0.66440    0.61713    0.53987    1.000
    C18      C        0.57320    0.66350    0.54395    1.000
    H9       H        0.52020    0.65570    0.52640    1.000
    C19      C        0.67090    0.24432    0.52095    1.000
    C20      C        0.82760    0.46705    0.32482    1.000
    H10      H        0.83060    0.41520    0.34050    1.000
    C21      C        0.94380    0.64610    0.12386    1.000
    C22      C        0.85090    0.65450    0.09674    1.000
    H11      H        0.79900    0.63410    0.12380    1.000
    C23      C        0.85180    0.69740    0.02501    1.000
    H12      H        0.80160    0.71130    0.99350    1.000
    C24      C        0.94620    0.71742    0.00705    1.000
    C25      C        0.97860    0.76020    0.93723    1.000
    C26      C        0.81950    0.84410    0.88956    1.000
    C27      C        0.07140    0.77354    0.91607    1.000
    C28      C        0.10480    0.81781    0.84464    1.000
    H13      H        0.06720    0.84250    0.80400    1.000
    C29      C        0.19950    0.81733    0.84689    1.000
    H14      H        0.23930    0.84170    0.80870    1.000
    C30      C        0.22710    0.77126    0.92052    1.000
    C31      C        0.32130    0.75321    0.94508    1.000
    C32      C        0.40580    0.86073    0.87407    1.000
    H15      H        0.36370    0.89180    0.89800    1.000
    C33      C        0.84410    0.80191    0.76664    1.000
    H16      H        0.85330    0.78740    0.72480    1.000
    C34      C        0.62230    0.79615    0.63256    1.000
    C35      C        0.63780    0.73337    0.59934    1.000
    C36      C        0.62050    0.16160    0.63530    1.000
    C37      C        0.68410    0.11310    0.53790    1.000
    C38      C        0.53350    0.77310    0.80437    1.000
    H17      H        0.57780    0.74210    0.78140    1.000
    C39      C        0.46440    0.74284    0.85480    1.000
    H18      H        0.46250    0.69230    0.86500    1.000
    C40      C        0.35190    0.70632    0.01489    1.000
    C41      C        0.44970    0.68725    0.03816    1.000
    H19      H        0.50380    0.70250    0.00950    1.000
    C42      C        0.44880    0.64307    0.10943    1.000
    H20      H        0.50210    0.62190    0.13870    1.000
    C43      C        0.34950    0.63499    0.13139    1.000
    C44      C        0.31630    0.59683    0.20220    1.000
    C45      C        0.22060    0.58838    0.22507    1.000
    C46      C        0.06460    0.59031    0.22103    1.000
    C47      C        0.97370    0.60363    0.19504    1.000
    C48      C        0.81520    0.61780    0.27072    1.000
    H21      H        0.80610    0.67030    0.25160    1.000
    C49      C        0.74690    0.58446    0.32184    1.000
    H22      H        0.69330    0.61580    0.33750    1.000
    C50      C        0.67960    0.55429    0.50741    1.000
    C51      C        0.67840    0.32341    0.47252    1.000
    C52      C        0.63270    0.23386    0.59200    1.000
    H23      H        0.61540    0.27400    0.61070    1.000
    C53      C        0.90210    0.49530    0.27562    1.000
    H24      H        0.95480    0.46220    0.26140    1.000
    C54      C        0.09190    0.54911    0.29598    1.000
    H25      H        0.05130    0.52770    0.33530    1.000
    C55      C        0.18820    0.54780    0.29781    1.000
    H26      H        0.22590    0.52490    0.33860    1.000
    N8       N        0.00208    0.68433    0.06737    1.000
    O8       O        0.59887    0.01361    0.72418    1.000
    C56      C        0.91640    0.77390    0.81633    1.000
    H27      H        0.73800    0.08300    0.51000    1.000
    H28      H        0.76600    0.69830    0.61370    1.000
    H29      H        0.96500    0.73880    0.80520    1.000
    H30      H        0.49400    0.74500    0.58100    1.000
    H31      H        0.80400    0.85620    0.92980    1.000
    H32      H        0.59200    0.16320    0.67310    1.000
    Zn4      Zn       0.85838    0.30518    0.92508    1.000
    Zn5      Zn       0.35352    0.12147    0.28991    1.000
    Zn6      Zn       0.34984    0.52663    0.57223    1.000
    C57      C        0.25100    0.12876    0.16249    1.000
    H33      H        0.30790    0.09470    0.15540    1.000
    O9       O        0.30607    0.20512    0.33234    1.000
    O10      O        0.45512    0.15558    0.37265    1.000
    O11      O        0.34150    0.02866    0.36935    1.000
    C58      C        0.61510    0.40991    0.68178    1.000
    H34      H        0.66740    0.37140    0.67630    1.000
    C59      C        0.54190    0.44085    0.63256    1.000
    H35      H        0.54560    0.42180    0.59410    1.000
    C60      C        0.46140    0.52522    0.69312    1.000
    H36      H        0.41010    0.56510    0.69680    1.000
    O12      O        0.39268    0.44565    0.52695    1.000
    O13      O        0.24275    0.49397    0.48703    1.000
    C61      C        0.25540    0.36971    0.43563    1.000
    H37      H        0.19330    0.39950    0.43920    1.000
    O14      O        0.34276    0.62522    0.49760    1.000
    O15      O        0.29620    0.66396    0.59429    1.000
    C62      C        0.30390    0.81510    0.50680    1.000
    H38      H        0.27890    0.80740    0.55510    1.000
    C63      C        0.09590    0.20635    0.11955    1.000
    N9       N        0.85161    0.25328    0.03814    1.000
    C64      C        0.60120    0.21424    0.11008    1.000
    C65      C        0.52420    0.11231    0.17727    1.000
    H39      H        0.52040    0.06210    0.18820    1.000
    N10      N        0.46032    0.15545    0.21287    1.000
    N11      N        0.23933    0.15023    0.22241    1.000
    C66      C        0.44020    0.28000    0.42688    1.000
    C67      C        0.26960    0.31190    0.40598    1.000
    C68      C        0.36670    0.97770    0.34140    1.000
    C69      C        0.35330    0.89836    0.39106    1.000
    N12      N        0.70763    0.32695    0.92742    1.000
    C70      C        0.60800    0.43846    0.74022    1.000
    N13      N        0.46504    0.49768    0.63787    1.000
    C71      C        0.53140    0.49634    0.74486    1.000
    H40      H        0.52620    0.51640    0.78280    1.000
    N14      N        0.85545    0.38535    0.82120    1.000
    C72      C        0.10280    0.42856    0.75131    1.000
    N15      N        0.24531    0.49000    0.65064    1.000
    C73      C        0.33560    0.38287    0.46013    1.000
    C74      C        0.42680    0.33650    0.45605    1.000
    H41      H        0.47980    0.34430    0.47360    1.000
    C75      C        0.32910    0.75568    0.47905    1.000
    C76      C        0.17240    0.53295    0.67518    1.000
    H42      H        0.16940    0.58480    0.65950    1.000
    C77      C        0.05620    0.35390    0.87614    1.000
    C78      C        0.14910    0.34550    0.90326    1.000
    H43      H        0.20100    0.36590    0.87620    1.000
    C79      C        0.14820    0.30260    0.97499    1.000
    H44      H        0.19840    0.28870    0.00650    1.000
    C80      C        0.05380    0.28258    0.99295    1.000
    C81      C        0.02140    0.23980    0.06277    1.000
    C82      C        0.18050    0.15590    0.11044    1.000
    C83      C        0.92860    0.22646    0.08393    1.000
    C84      C        0.89520    0.18219    0.15536    1.000
    H45      H        0.93280    0.15750    0.19600    1.000
    C85      C        0.80050    0.18267    0.15311    1.000
    H46      H        0.76070    0.15830    0.19130    1.000
    C86      C        0.77290    0.22874    0.07948    1.000
    C87      C        0.67870    0.24679    0.05492    1.000
    C88      C        0.59420    0.13927    0.12593    1.000
    H47      H        0.63630    0.10820    0.10200    1.000
    C89      C        0.15590    0.19809    0.23336    1.000
    H48      H        0.14670    0.21260    0.27520    1.000
    C90      C        0.37770    0.20385    0.36744    1.000
    C91      C        0.36220    0.26663    0.40066    1.000
    C92      C        0.37950    0.83840    0.36470    1.000
    C93      C        0.31590    0.88690    0.46210    1.000
    C94      C        0.46650    0.22690    0.19563    1.000
    H49      H        0.42220    0.25790    0.21860    1.000
    C95      C        0.53560    0.25716    0.14520    1.000
    H50      H        0.53750    0.30770    0.13500    1.000
    C96      C        0.64810    0.29368    0.98511    1.000
    C97      C        0.55030    0.31275    0.96184    1.000
    H51      H        0.49620    0.29750    0.99050    1.000
    C98      C        0.55120    0.35693    0.89057    1.000
    H52      H        0.49790    0.37810    0.86130    1.000
    C99      C        0.65050    0.36501    0.86861    1.000
    C100     C        0.68370    0.40317    0.79780    1.000
    C101     C        0.77940    0.41162    0.77493    1.000
    C102     C        0.93540    0.40969    0.77897    1.000
    C103     C        0.02630    0.39637    0.80496    1.000
    C104     C        0.18480    0.38220    0.72928    1.000
    H53      H        0.19390    0.32970    0.74840    1.000
    C105     C        0.25310    0.41554    0.67816    1.000
    H54      H        0.30670    0.38420    0.66250    1.000
    C106     C        0.32040    0.44571    0.49259    1.000
    C107     C        0.32160    0.67659    0.52748    1.000
    C108     C        0.36730    0.76614    0.40800    1.000
    H55      H        0.38460    0.72600    0.38930    1.000
    C109     C        0.09790    0.50470    0.72438    1.000
    H56      H        0.04520    0.53780    0.73860    1.000
    C110     C        0.90810    0.45089    0.70402    1.000
    H57      H        0.94870    0.47230    0.66470    1.000
    C111     C        0.81180    0.45220    0.70219    1.000
    H58      H        0.77410    0.47510    0.66140    1.000
    N16      N        0.99792    0.31567    0.93263    1.000
    O16      O        0.40113    0.98639    0.27582    1.000
    C112     C        0.08360    0.22610    0.18367    1.000
    H59      H        0.26200    0.91700    0.49000    1.000
    H60      H        0.23400    0.30170    0.38630    1.000
    H61      H        0.03500    0.26120    0.19480    1.000
    H62      H        0.50600    0.25500    0.41900    1.000
    H63      H        0.19600    0.14380    0.07020    1.000
    H64      H        0.40800    0.83680    0.32690    1.000
