# CIF file generated by openbabel 3.1.0, see https://openbabel.org
data_I
_chemical_name_common 'image0'
_cell_length_a 9.668
_cell_length_b 9.6572
_cell_length_c 10.623
_cell_angle_alpha 74.161
_cell_angle_beta 74.675
_cell_angle_gamma 88.974
_space_group_name_H-M_alt 'P 1'
_space_group_name_Hall 'P 1'
loop_
    _symmetry_equiv_pos_as_xyz
    x,y,z
loop_
    _atom_site_label
    _atom_site_type_symbol
    _atom_site_fract_x
    _atom_site_fract_y
    _atom_site_fract_z
    _atom_site_occupancy
    P1       P        0.50270    0.96880    0.79450    1.000
    P2       P        0.27570    0.47590    0.90280    1.000
    P3       P        0.03420    0.79960    0.64970    1.000
    P4       P        0.18720    0.76790    0.14010    1.000
    Al1      Al       0.23140    0.78650    0.83900    1.000
    Al2      Al       0.48480    0.22470    0.92230    1.000
    Al3      Al       0.17820    0.95140    0.34210    1.000
    Al4      Al       0.97720    0.50050    0.86710    1.000
    O1       O        0.16710    0.44680    0.83050    1.000
    O2       O        0.40370    0.38300    0.87710    1.000
    O3       O        0.19930    0.84310    0.99050    1.000
    O4       O        0.44740    0.09320    0.85260    1.000
    O5       O        0.38810    0.91310    0.74560    1.000
    O6       O        0.33730    0.63410    0.83840    1.000
    O7       O        0.99260    0.64070    0.70730    1.000
    O8       O        0.10550    0.83090    0.49790    1.000
    O9       O        0.04840    0.63980    0.94740    1.000
    O10      O        0.21080    0.45010    0.05550    1.000
    O11      O        0.13550    0.85190    0.71730    1.000
    O12      O        0.33510    0.71700    0.15380    1.000
    O13      O        0.14570    0.88220    0.21690    1.000
    O14      O        0.63850    0.01980    0.67800    1.000
    O15      O        0.54600    0.84820    0.90370    1.000
    O16      O        0.07980    0.64090    0.19790    1.000
    O17      O        0.89690    0.88240    0.66890    1.000
    H1       H        0.97310    0.69680    0.96800    1.000
    P5       P        0.49730    0.03120    0.20550    1.000
    P6       P        0.72430    0.52410    0.09720    1.000
    P7       P        0.96580    0.20040    0.35030    1.000
    P8       P        0.81280    0.23210    0.85990    1.000
    Al5      Al       0.76860    0.21350    0.16100    1.000
    Al6      Al       0.51520    0.77530    0.07770    1.000
    Al7      Al       0.82180    0.04860    0.65790    1.000
    Al8      Al       0.02280    0.49950    0.13290    1.000
    O18      O        0.83290    0.55320    0.16950    1.000
    O19      O        0.59630    0.61700    0.12290    1.000
    O20      O        0.80070    0.15690    0.00950    1.000
    O21      O        0.55260    0.90680    0.14740    1.000
    O22      O        0.61190    0.08690    0.25440    1.000
    O23      O        0.66270    0.36590    0.16160    1.000
    O24      O        0.00740    0.35930    0.29270    1.000
    O25      O        0.89450    0.16910    0.50210    1.000
    O26      O        0.95160    0.36020    0.05260    1.000
    O27      O        0.78920    0.54990    0.94450    1.000
    O28      O        0.86450    0.14810    0.28270    1.000
    O29      O        0.66490    0.28300    0.84620    1.000
    O30      O        0.85430    0.11780    0.78310    1.000
    O31      O        0.36150    0.98020    0.32200    1.000
    O32      O        0.45400    0.15180    0.09630    1.000
    O33      O        0.92020    0.35910    0.80210    1.000
    O34      O        0.10310    0.11760    0.33110    1.000
    H2       H        0.02690    0.30320    0.03200    1.000
