# CIF file generated by openbabel 3.1.0, see https://openbabel.org
data_I
_chemical_name_common 'image0'
_cell_length_a 9.7799
_cell_length_b 11.3381
_cell_length_c 12.6008
_cell_angle_alpha 90
_cell_angle_beta 90
_cell_angle_gamma 90
_space_group_name_H-M_alt 'P 1'
_space_group_name_Hall 'P 1'
loop_
    _symmetry_equiv_pos_as_xyz
    x,y,z
loop_
    _atom_site_label
    _atom_site_type_symbol
    _atom_site_fract_x
    _atom_site_fract_y
    _atom_site_fract_z
    _atom_site_occupancy
    U1       U        0.92668    0.32386    0.45650    1.000
    S1       S        0.51514    0.50707    0.24219    1.000
    O1       O        0.71030    0.39400    0.38930    1.000
    O2       O        0.55830    0.34910    0.51630    1.000
    O3       O        0.18800    0.66820    0.13870    1.000
    O4       O        0.37940    0.61740    0.05430    1.000
    C1       C        0.59210    0.39720    0.43010    1.000
    C2       C        0.48580    0.46400    0.37030    1.000
    C3       C        0.35870    0.49390    0.40530    1.000
    H1       H        0.32590    0.47700    0.47460    1.000
    C4       C        0.28140    0.55280    0.32700    1.000
    H2       H        0.19030    0.57990    0.33700    1.000
    C5       C        0.35420    0.56630    0.23450    1.000
    C6       C        0.30390    0.62200    0.13520    1.000
    U2       U        0.57332    0.67614    0.95650    1.000
    S2       S        0.98486    0.49293    0.74219    1.000
    O5       O        0.78970    0.60600    0.88930    1.000
    O6       O        0.94170    0.65090    0.01630    1.000
    O7       O        0.31200    0.33180    0.63870    1.000
    O8       O        0.12060    0.38260    0.55430    1.000
    C7       C        0.90790    0.60280    0.93010    1.000
    C8       C        0.01420    0.53600    0.87030    1.000
    C9       C        0.14130    0.50610    0.90530    1.000
    H3       H        0.17410    0.52300    0.97460    1.000
    C10      C        0.21860    0.44720    0.82700    1.000
    H4       H        0.30970    0.42010    0.83700    1.000
    C11      C        0.14580    0.43370    0.73450    1.000
    C12      C        0.19610    0.37800    0.63520    1.000
    U3       U        0.07332    0.82386    0.04350    1.000
    S3       S        0.48486    0.00707    0.25781    1.000
    O9       O        0.28970    0.89400    0.11070    1.000
    O10      O        0.44170    0.84910    0.98370    1.000
    O11      O        0.81200    0.16820    0.36130    1.000
    O12      O        0.62060    0.11740    0.44570    1.000
    C13      C        0.40790    0.89720    0.06990    1.000
    C14      C        0.51420    0.96400    0.12970    1.000
    C15      C        0.64130    0.99390    0.09470    1.000
    H5       H        0.67410    0.97700    0.02540    1.000
    C16      C        0.71860    0.05280    0.17300    1.000
    H6       H        0.80970    0.07990    0.16300    1.000
    C17      C        0.64580    0.06630    0.26550    1.000
    C18      C        0.69610    0.12200    0.36480    1.000
    U4       U        0.42668    0.17614    0.54350    1.000
    S4       S        0.01514    0.99293    0.75781    1.000
    O13      O        0.21030    0.10600    0.61070    1.000
    O14      O        0.05830    0.15090    0.48370    1.000
    O15      O        0.68800    0.83180    0.86130    1.000
    O16      O        0.87940    0.88260    0.94570    1.000
    C19      C        0.09210    0.10280    0.56990    1.000
    C20      C        0.98580    0.03600    0.62970    1.000
    C21      C        0.85870    0.00610    0.59470    1.000
    H7       H        0.82590    0.02300    0.52540    1.000
    C22      C        0.78140    0.94720    0.67300    1.000
    H8       H        0.69030    0.92010    0.66300    1.000
    C23      C        0.85420    0.93370    0.76550    1.000
    C24      C        0.80390    0.87800    0.86480    1.000
