# CIF file generated by openbabel 3.1.0, see https://openbabel.org
data_I
_chemical_name_common 'image0'
_cell_length_a 13.976
_cell_length_b 13.976
_cell_length_c 17.531
_cell_angle_alpha 90
_cell_angle_beta 90
_cell_angle_gamma 90
_space_group_name_H-M_alt 'P 1'
_space_group_name_Hall 'P 1'
loop_
    _symmetry_equiv_pos_as_xyz
    x,y,z
loop_
    _atom_site_label
    _atom_site_type_symbol
    _atom_site_fract_x
    _atom_site_fract_y
    _atom_site_fract_z
    _atom_site_occupancy
    Pr1      Pr       0.28526    0.60751    0.24980    1.000
    C1       C        0.45900    0.72460    0.35050    1.000
    C2       C        0.52020    0.66230    0.29890    1.000
    C3       C        0.61930    0.66400    0.30270    1.000
    H1       H        0.65130    0.70110    0.33860    1.000
    C4       C        0.66860    0.60740    0.25030    1.000
    H2       H        0.73520    0.60790    0.24980    1.000
    C5       C        0.61940    0.55090    0.19930    1.000
    H3       H        0.65160    0.51300    0.16410    1.000
    C6       C        0.52080    0.55220    0.20210    1.000
    C7       C        0.45970    0.48950    0.15060    1.000
    C8       C        0.38160    0.06660    0.40050    1.000
    C9       C        0.44450    0.12780    0.45170    1.000
    C10      C        0.44370    0.22730    0.44800    1.000
    H4       H        0.40660    0.25900    0.41190    1.000
    C11      C        0.05620    0.48800    0.44830    1.000
    H5       H        0.09330    0.45530    0.41280    1.000
    C12      C        0.05530    0.58700    0.45110    1.000
    C13      C        0.11740    0.64910    0.39980    1.000
    H6       H        0.30900    0.45900    0.36900    1.000
    H7       H        0.14500    0.41300    0.22700    1.000
    H8       H        0.35200    0.66500    0.13700    1.000
    H9       H        0.88500    0.80400    0.37300    1.000
    H10      H        0.31500    0.76300    0.13400    1.000
    N1       N        0.47120    0.60670    0.25000    1.000
    O1       O        0.36860    0.71810    0.34180    1.000
    O2       O        0.50240    0.77780    0.39600    1.000
    O3       O        0.37000    0.49590    0.15820    1.000
    O4       O        0.50410    0.43510    0.10480    1.000
    O5       O        0.35160    0.49350    0.35040    1.000
    O6       O        0.19200    0.44420    0.24090    1.000
    O7       O        0.32810    0.11130    0.35500    1.000
    O8       O        0.35260    0.72150    0.15020    1.000
    O9       O        0.17070    0.60450    0.35410    1.000
    O10      O        0.11110    0.73850    0.40750    1.000
    O11      O        0.88580    0.75570    0.40030    1.000
    O12      O        0.38880    0.97750    0.40800    1.000
    Pr2      Pr       0.78526    0.10751    0.74980    1.000
    C14      C        0.95900    0.22460    0.85050    1.000
    C15      C        0.02020    0.16230    0.79890    1.000
    C16      C        0.11930    0.16400    0.80270    1.000
    H11      H        0.15130    0.20110    0.83860    1.000
    C17      C        0.16860    0.10740    0.75030    1.000
    H12      H        0.23520    0.10790    0.74980    1.000
    C18      C        0.11940    0.05090    0.69930    1.000
    H13      H        0.15160    0.01300    0.66410    1.000
    C19      C        0.02080    0.05220    0.70210    1.000
    C20      C        0.95970    0.98950    0.65060    1.000
    C21      C        0.88160    0.56660    0.90050    1.000
    C22      C        0.94450    0.62780    0.95170    1.000
    C23      C        0.94370    0.72730    0.94800    1.000
    H14      H        0.90660    0.75900    0.91190    1.000
    C24      C        0.55620    0.98800    0.94830    1.000
    H15      H        0.59330    0.95530    0.91280    1.000
    C25      C        0.55530    0.08700    0.95110    1.000
    C26      C        0.61740    0.14910    0.89980    1.000
    H16      H        0.80900    0.95900    0.86900    1.000
    H17      H        0.64500    0.91300    0.72700    1.000
    H18      H        0.85200    0.16500    0.63700    1.000
    H19      H        0.38500    0.30400    0.87300    1.000
    H20      H        0.81500    0.26300    0.63400    1.000
    N2       N        0.97120    0.10670    0.75000    1.000
    O13      O        0.86860    0.21810    0.84180    1.000
    O14      O        0.00240    0.27780    0.89600    1.000
    O15      O        0.87000    0.99590    0.65820    1.000
    O16      O        0.00410    0.93510    0.60480    1.000
    O17      O        0.85160    0.99350    0.85040    1.000
    O18      O        0.69200    0.94420    0.74090    1.000
    O19      O        0.82810    0.61130    0.85500    1.000
    O20      O        0.85260    0.22150    0.65020    1.000
    O21      O        0.67070    0.10450    0.85410    1.000
    O22      O        0.61110    0.23850    0.90750    1.000
    O23      O        0.38580    0.25570    0.90030    1.000
    O24      O        0.88880    0.47750    0.90800    1.000
    Pr3      Pr       0.71474    0.60751    0.75020    1.000
    C27      C        0.54100    0.72460    0.64950    1.000
    C28      C        0.47980    0.66230    0.70110    1.000
    C29      C        0.38070    0.66400    0.69730    1.000
    H21      H        0.34870    0.70110    0.66140    1.000
    C30      C        0.33140    0.60740    0.74970    1.000
    H22      H        0.26480    0.60790    0.75020    1.000
    C31      C        0.38060    0.55090    0.80070    1.000
    H23      H        0.34840    0.51300    0.83590    1.000
    C32      C        0.47920    0.55220    0.79790    1.000
    C33      C        0.54030    0.48950    0.84940    1.000
    C34      C        0.61840    0.06660    0.59950    1.000
    C35      C        0.55550    0.12780    0.54830    1.000
    C36      C        0.55630    0.22730    0.55200    1.000
    H24      H        0.59340    0.25900    0.58810    1.000
    C37      C        0.94380    0.48800    0.55170    1.000
    H25      H        0.90670    0.45530    0.58720    1.000
    C38      C        0.94470    0.58700    0.54890    1.000
    C39      C        0.88260    0.64910    0.60020    1.000
    H26      H        0.69100    0.45900    0.63100    1.000
    H27      H        0.85500    0.41300    0.77300    1.000
    H28      H        0.64800    0.66500    0.86300    1.000
    H29      H        0.11500    0.80400    0.62700    1.000
    H30      H        0.68500    0.76300    0.86600    1.000
    N3       N        0.52880    0.60670    0.75000    1.000
    O25      O        0.63140    0.71810    0.65820    1.000
    O26      O        0.49760    0.77780    0.60400    1.000
    O27      O        0.63000    0.49590    0.84180    1.000
    O28      O        0.49590    0.43510    0.89520    1.000
    O29      O        0.64840    0.49350    0.64960    1.000
    O30      O        0.80800    0.44420    0.75910    1.000
    O31      O        0.67190    0.11130    0.64500    1.000
    O32      O        0.64740    0.72150    0.84980    1.000
    O33      O        0.82930    0.60450    0.64590    1.000
    O34      O        0.88890    0.73850    0.59250    1.000
    O35      O        0.11420    0.75570    0.59970    1.000
    O36      O        0.61120    0.97750    0.59200    1.000
    Pr4      Pr       0.21474    0.10751    0.25020    1.000
    C40      C        0.04100    0.22460    0.14950    1.000
    C41      C        0.97980    0.16230    0.20110    1.000
    C42      C        0.88070    0.16400    0.19730    1.000
    H31      H        0.84870    0.20110    0.16140    1.000
    C43      C        0.83140    0.10740    0.24970    1.000
    H32      H        0.76480    0.10790    0.25020    1.000
    C44      C        0.88060    0.05090    0.30070    1.000
    H33      H        0.84840    0.01300    0.33590    1.000
    C45      C        0.97920    0.05220    0.29790    1.000
    C46      C        0.04030    0.98950    0.34940    1.000
    C47      C        0.11840    0.56660    0.09950    1.000
    C48      C        0.05550    0.62780    0.04830    1.000
    C49      C        0.05630    0.72730    0.05200    1.000
    H34      H        0.09340    0.75900    0.08810    1.000
    C50      C        0.44380    0.98800    0.05170    1.000
    H35      H        0.40670    0.95530    0.08720    1.000
    C51      C        0.44470    0.08700    0.04890    1.000
    C52      C        0.38260    0.14910    0.10020    1.000
    H36      H        0.19100    0.95900    0.13100    1.000
    H37      H        0.35500    0.91300    0.27300    1.000
    H38      H        0.14800    0.16500    0.36300    1.000
    H39      H        0.61500    0.30400    0.12700    1.000
    H40      H        0.18500    0.26300    0.36600    1.000
    N4       N        0.02880    0.10670    0.25000    1.000
    O37      O        0.13140    0.21810    0.15820    1.000
    O38      O        0.99760    0.27780    0.10400    1.000
    O39      O        0.13000    0.99590    0.34180    1.000
    O40      O        0.99590    0.93510    0.39520    1.000
    O41      O        0.14840    0.99350    0.14960    1.000
    O42      O        0.30800    0.94420    0.25910    1.000
    O43      O        0.17190    0.61130    0.14500    1.000
    O44      O        0.14740    0.22150    0.34980    1.000
    O45      O        0.32930    0.10450    0.14590    1.000
    O46      O        0.38890    0.23850    0.09250    1.000
    O47      O        0.61420    0.25570    0.09970    1.000
    O48      O        0.11120    0.47750    0.09200    1.000
    Pr5      Pr       0.50000    0.89265    0.50000    1.000
    C53      C        0.50000    0.27880    0.50000    1.000
    H41      H        0.50000    0.34530    0.50000    1.000
    N5       N        0.50000    0.07780    0.50000    1.000
    Pr6      Pr       0.00000    0.39265    0.00000    1.000
    C54      C        0.00000    0.77880    0.00000    1.000
    H42      H        0.00000    0.84530    0.00000    1.000
    N6       N        0.00000    0.57780    0.00000    1.000
    Pr7      Pr       0.00000    0.82225    0.50000    1.000
    C55      C        0.00000    0.43980    0.50000    1.000
    H43      H        0.00000    0.37330    0.50000    1.000
    N7       N        0.00000    0.63740    0.50000    1.000
    Pr8      Pr       0.50000    0.32225    0.00000    1.000
    C56      C        0.50000    0.93980    0.00000    1.000
    H44      H        0.50000    0.87330    0.00000    1.000
    N8       N        0.50000    0.13740    0.00000    1.000
