# CIF file generated by openbabel 3.1.0, see https://openbabel.org
data_I
_chemical_name_common 'NACVUI_clean'
_cell_length_a 7.314
_cell_length_b 12.758
_cell_length_c 15.332
_cell_angle_alpha 90
_cell_angle_beta 90
_cell_angle_gamma 94.5
_space_group_name_H-M_alt 'P 1'
_space_group_name_Hall 'P 1'
loop_
    _symmetry_equiv_pos_as_xyz
    x,y,z
loop_
    _atom_site_label
    _atom_site_type_symbol
    _atom_site_fract_x
    _atom_site_fract_y
    _atom_site_fract_z
    _atom_site_occupancy
    Cu1      Cu       0.73207    0.35771    0.87975    1.000
    Cu2      Cu       0.26793    0.14229    0.37975    1.000
    Cu3      Cu       0.26793    0.64229    0.12025    1.000
    Cu4      Cu       0.73207    0.85771    0.62025    1.000
    H1       H        0.91420    0.40500    0.58330    1.000
    H2       H        0.83900    0.42310    0.48940    1.000
    H3       H        0.74550    0.59020    0.58250    1.000
    H4       H        0.75490    0.53860    0.67510    1.000
    H5       H        0.56710    0.57130    0.63890    1.000
    H6       H        0.08580    0.09500    0.08330    1.000
    H7       H        0.16100    0.07690    0.98940    1.000
    H8       H        0.25450    0.90980    0.08250    1.000
    H9       H        0.24510    0.96140    0.17510    1.000
    H10      H        0.43290    0.92870    0.13890    1.000
    H11      H        0.08580    0.59500    0.41670    1.000
    H12      H        0.16100    0.57690    0.51060    1.000
    H13      H        0.25450    0.40980    0.41750    1.000
    H14      H        0.24510    0.46140    0.32490    1.000
    H15      H        0.43290    0.42870    0.36110    1.000
    H16      H        0.91420    0.90500    0.91670    1.000
    H17      H        0.83900    0.92310    0.01060    1.000
    H18      H        0.74550    0.09020    0.91750    1.000
    H19      H        0.75490    0.03860    0.82490    1.000
    H20      H        0.56710    0.07130    0.86110    1.000
    C1       C        0.76850    0.20970    0.61630    1.000
    C2       C        0.78290    0.26970    0.53110    1.000
    C3       C        0.75950    0.26020    0.69590    1.000
    C4       C        0.75630    0.10130    0.61550    1.000
    C5       C        0.61920    0.23890    0.47680    1.000
    C6       C        0.94240    0.23520    0.48220    1.000
    C7       C        0.81000    0.38970    0.54500    1.000
    C8       C        0.64510    0.43730    0.58360    1.000
    C9       C        0.68140    0.54390    0.62360    1.000
    C10      C        0.23150    0.29030    0.11630    1.000
    C11      C        0.21710    0.23030    0.03110    1.000
    C12      C        0.24050    0.23980    0.19590    1.000
    C13      C        0.24370    0.39870    0.11550    1.000
    C14      C        0.38080    0.26110    0.97680    1.000
    C15      C        0.05760    0.26480    0.98220    1.000
    C16      C        0.19000    0.11030    0.04500    1.000
    C17      C        0.35490    0.06270    0.08360    1.000
    C18      C        0.31860    0.95610    0.12360    1.000
    C19      C        0.23150    0.79030    0.38370    1.000
    C20      C        0.21710    0.73030    0.46890    1.000
    C21      C        0.24050    0.73980    0.30410    1.000
    C22      C        0.24370    0.89870    0.38450    1.000
    C23      C        0.38080    0.76110    0.52320    1.000
    C24      C        0.05760    0.76480    0.51780    1.000
    C25      C        0.19000    0.61030    0.45500    1.000
    C26      C        0.35490    0.56270    0.41640    1.000
    C27      C        0.31860    0.45610    0.37640    1.000
    C28      C        0.76850    0.70970    0.88370    1.000
    C29      C        0.78290    0.76970    0.96890    1.000
    C30      C        0.75950    0.76020    0.80410    1.000
    C31      C        0.75630    0.60130    0.88450    1.000
    C32      C        0.61920    0.73890    0.02320    1.000
    C33      C        0.94240    0.73520    0.01780    1.000
    C34      C        0.81000    0.88970    0.95500    1.000
    C35      C        0.64510    0.93730    0.91640    1.000
    C36      C        0.68140    0.04390    0.87640    1.000
    N1       N        0.75090    0.30150    0.76200    1.000
    N2       N        0.74930    0.00990    0.61420    1.000
    N3       N        0.49860    0.20500    0.43630    1.000
    N4       N        0.06510    0.20410    0.44910    1.000
    N5       N        0.24910    0.19850    0.26200    1.000
    N6       N        0.25070    0.49010    0.11420    1.000
    N7       N        0.50140    0.29500    0.93630    1.000
    N8       N        0.93490    0.29590    0.94910    1.000
    N9       N        0.24910    0.69850    0.23800    1.000
    N10      N        0.25070    0.99010    0.38580    1.000
    N11      N        0.50140    0.79500    0.56370    1.000
    N12      N        0.93490    0.79590    0.55090    1.000
    N13      N        0.75090    0.80150    0.73800    1.000
    N14      N        0.74930    0.50990    0.88580    1.000
    N15      N        0.49860    0.70500    0.06370    1.000
    N16      N        0.06510    0.70410    0.05090    1.000
    O1       O        0.49580    0.39160    0.58070    1.000
    O2       O        0.50420    0.10840    0.08070    1.000
    O3       O        0.50420    0.60840    0.41930    1.000
    O4       O        0.49580    0.89160    0.91930    1.000
