# CIF file generated by openbabel 3.1.0, see https://openbabel.org
data_I
_chemical_name_common 'image0'
_cell_length_a 29.9537
_cell_length_b 21.1398
_cell_length_c 19.4385
_cell_angle_alpha 90
_cell_angle_beta 93.98
_cell_angle_gamma 90
_space_group_name_H-M_alt 'P 1'
_space_group_name_Hall 'P 1'
loop_
    _symmetry_equiv_pos_as_xyz
    x,y,z
loop_
    _atom_site_label
    _atom_site_type_symbol
    _atom_site_fract_x
    _atom_site_fract_y
    _atom_site_fract_z
    _atom_site_occupancy
    Dy1      Dy       0.27653    0.17457    0.05885    1.000
    Dy2      Dy       0.18123    0.83030    0.96348    1.000
    O1       O        0.34030    0.10140    0.07300    1.000
    O2       O        0.28000    0.06900    0.01550    1.000
    O3       O        0.25730    0.84010    0.96890    1.000
    O4       O        0.30920    0.77180    0.00160    1.000
    O5       O        0.62780    0.72290    0.38130    1.000
    O6       O        0.69592    0.70850    0.35150    1.000
    O7       O        0.68886    0.80880    0.04470    1.000
    O8       O        0.73127    0.74550    0.11320    1.000
    O9       O        0.14620    0.90970    0.89300    1.000
    O10      O        0.19100    0.94490    0.97370    1.000
    O11      O        0.21560    0.18410    0.98140    1.000
    O12      O        0.17115    0.24390    0.91220    1.000
    C1       C        0.31720    0.05750    0.04380    1.000
    C2       C        0.33420    0.99090    0.04640    1.000
    C3       C        0.37670    0.97790    0.07810    1.000
    H1       H        0.39410    0.01080    0.09700    1.000
    C4       C        0.39310    0.91620    0.08170    1.000
    C5       C        0.36480    0.86700    0.05520    1.000
    H2       H        0.37470    0.82540    0.05870    1.000
    C6       C        0.32390    0.87920    0.02510    1.000
    C7       C        0.30750    0.94110    0.01850    1.000
    H3       H        0.27950    0.94910    0.99620    1.000
    C8       C        0.29450    0.82570    0.99560    1.000
    C9       C        0.43600    0.90240    0.11200    1.000
    C10      C        0.47250    0.88550    0.13340    1.000
    C11      C        0.51430    0.86360    0.15740    1.000
    C12      C        0.55020    0.84150    0.17530    1.000
    C13      C        0.59210    0.81530    0.19330    1.000
    C14      C        0.60380    0.78770    0.25650    1.000
    H4       H        0.58390    0.78970    0.29120    1.000
    C15      C        0.64450    0.75710    0.26930    1.000
    C16      C        0.67510    0.75530    0.21790    1.000
    H5       H        0.70240    0.73490    0.22670    1.000
    C17      C        0.66540    0.78380    0.15340    1.000
    C18      C        0.62370    0.81250    0.14070    1.000
    H6       H        0.61610    0.83010    0.09760    1.000
    C19      C        0.65690    0.72750    0.33870    1.000
    C20      C        0.69830    0.77940    0.10070    1.000
    C21      C        0.16200    0.95530    0.92700    1.000
    C22      C        0.14770    0.01960    0.90720    1.000
    C23      C        0.17230    0.07320    0.93270    1.000
    H7       H        0.19790    0.06770    0.96210    1.000
    C24      C        0.15800    0.13480    0.91320    1.000
    C25      C        0.11770    0.14290    0.87330    1.000
    H8       H        0.10690    0.18340    0.86330    1.000
    C26      C        0.09320    0.08940    0.84810    1.000
    C27      C        0.10870    0.02870    0.86640    1.000
    H9       H        0.09230    0.99360    0.85060    1.000
    C28      C        0.05450    0.09650    0.80360    1.000
    C29      C        0.01900    0.09810    0.77180    1.000
    C30      C        0.18350    0.19030    0.93780    1.000
    Dy3      Dy       0.77653    0.67457    0.05885    1.000
    Dy4      Dy       0.68123    0.33030    0.96348    1.000
    O13      O        0.84030    0.60140    0.07300    1.000
    O14      O        0.78000    0.56900    0.01550    1.000
    O15      O        0.75730    0.34010    0.96890    1.000
    O16      O        0.80920    0.27180    0.00160    1.000
    O17      O        0.12780    0.22290    0.38130    1.000
    O18      O        0.19592    0.20850    0.35150    1.000
    O19      O        0.18886    0.30880    0.04470    1.000
    O20      O        0.23127    0.24550    0.11320    1.000
    O21      O        0.64620    0.40970    0.89300    1.000
    O22      O        0.69100    0.44490    0.97370    1.000
    O23      O        0.71560    0.68410    0.98140    1.000
    O24      O        0.67115    0.74390    0.91220    1.000
    C31      C        0.81720    0.55750    0.04380    1.000
    C32      C        0.83420    0.49090    0.04640    1.000
    C33      C        0.87670    0.47790    0.07810    1.000
    H10      H        0.89410    0.51080    0.09700    1.000
    C34      C        0.89310    0.41620    0.08170    1.000
    C35      C        0.86480    0.36700    0.05520    1.000
    H11      H        0.87470    0.32540    0.05870    1.000
    C36      C        0.82390    0.37920    0.02510    1.000
    C37      C        0.80750    0.44110    0.01850    1.000
    H12      H        0.77950    0.44910    0.99620    1.000
    C38      C        0.79450    0.32570    0.99560    1.000
    C39      C        0.93600    0.40240    0.11200    1.000
    C40      C        0.97250    0.38550    0.13340    1.000
    C41      C        0.01430    0.36360    0.15740    1.000
    C42      C        0.05020    0.34150    0.17530    1.000
    C43      C        0.09210    0.31530    0.19330    1.000
    C44      C        0.10380    0.28770    0.25650    1.000
    H13      H        0.08390    0.28970    0.29120    1.000
    C45      C        0.14450    0.25710    0.26930    1.000
    C46      C        0.17510    0.25530    0.21790    1.000
    H14      H        0.20240    0.23490    0.22670    1.000
    C47      C        0.16540    0.28380    0.15340    1.000
    C48      C        0.12370    0.31250    0.14070    1.000
    H15      H        0.11610    0.33010    0.09760    1.000
    C49      C        0.15690    0.22750    0.33870    1.000
    C50      C        0.19830    0.27940    0.10070    1.000
    C51      C        0.66200    0.45530    0.92700    1.000
    C52      C        0.64770    0.51960    0.90720    1.000
    C53      C        0.67230    0.57320    0.93270    1.000
    H16      H        0.69790    0.56770    0.96210    1.000
    C54      C        0.65800    0.63480    0.91320    1.000
    C55      C        0.61770    0.64290    0.87330    1.000
    H17      H        0.60690    0.68340    0.86330    1.000
    C56      C        0.59320    0.58940    0.84810    1.000
    C57      C        0.60870    0.52870    0.86640    1.000
    H18      H        0.59230    0.49360    0.85060    1.000
    C58      C        0.55450    0.59650    0.80360    1.000
    C59      C        0.51900    0.59810    0.77180    1.000
    C60      C        0.68350    0.69030    0.93780    1.000
    Dy5      Dy       0.72347    0.17457    0.44115    1.000
    Dy6      Dy       0.81877    0.83030    0.53652    1.000
    O25      O        0.65970    0.10140    0.42700    1.000
    O26      O        0.72000    0.06900    0.48450    1.000
    O27      O        0.74270    0.84010    0.53110    1.000
    O28      O        0.69080    0.77180    0.49840    1.000
    O29      O        0.37220    0.72290    0.11870    1.000
    O30      O        0.30408    0.70850    0.14850    1.000
    O31      O        0.31114    0.80880    0.45530    1.000
    O32      O        0.26873    0.74550    0.38680    1.000
    O33      O        0.85380    0.90970    0.60700    1.000
    O34      O        0.80900    0.94490    0.52630    1.000
    O35      O        0.78440    0.18410    0.51860    1.000
    O36      O        0.82885    0.24390    0.58780    1.000
    C61      C        0.68280    0.05750    0.45620    1.000
    C62      C        0.66580    0.99090    0.45360    1.000
    C63      C        0.62330    0.97790    0.42190    1.000
    H19      H        0.60590    0.01080    0.40300    1.000
    C64      C        0.60690    0.91620    0.41830    1.000
    C65      C        0.63520    0.86700    0.44480    1.000
    H20      H        0.62530    0.82540    0.44130    1.000
    C66      C        0.67610    0.87920    0.47490    1.000
    C67      C        0.69250    0.94110    0.48150    1.000
    H21      H        0.72050    0.94910    0.50380    1.000
    C68      C        0.70550    0.82570    0.50440    1.000
    C69      C        0.56400    0.90240    0.38800    1.000
    C70      C        0.52750    0.88550    0.36660    1.000
    C71      C        0.48570    0.86360    0.34260    1.000
    C72      C        0.44980    0.84150    0.32470    1.000
    C73      C        0.40790    0.81530    0.30670    1.000
    C74      C        0.39620    0.78770    0.24350    1.000
    H22      H        0.41610    0.78970    0.20880    1.000
    C75      C        0.35550    0.75710    0.23070    1.000
    C76      C        0.32490    0.75530    0.28210    1.000
    H23      H        0.29760    0.73490    0.27330    1.000
    C77      C        0.33460    0.78380    0.34660    1.000
    C78      C        0.37630    0.81250    0.35930    1.000
    H24      H        0.38390    0.83010    0.40240    1.000
    C79      C        0.34310    0.72750    0.16130    1.000
    C80      C        0.30170    0.77940    0.39930    1.000
    C81      C        0.83800    0.95530    0.57300    1.000
    C82      C        0.85230    0.01960    0.59280    1.000
    C83      C        0.82770    0.07320    0.56730    1.000
    H25      H        0.80210    0.06770    0.53790    1.000
    C84      C        0.84200    0.13480    0.58680    1.000
    C85      C        0.88230    0.14290    0.62670    1.000
    H26      H        0.89310    0.18340    0.63670    1.000
    C86      C        0.90680    0.08940    0.65190    1.000
    C87      C        0.89130    0.02870    0.63360    1.000
    H27      H        0.90770    0.99360    0.64940    1.000
    C88      C        0.94550    0.09650    0.69640    1.000
    C89      C        0.98100    0.09810    0.72820    1.000
    C90      C        0.81650    0.19030    0.56220    1.000
    Dy7      Dy       0.22347    0.67457    0.44115    1.000
    Dy8      Dy       0.31877    0.33030    0.53652    1.000
    O37      O        0.15970    0.60140    0.42700    1.000
    O38      O        0.22000    0.56900    0.48450    1.000
    O39      O        0.24270    0.34010    0.53110    1.000
    O40      O        0.19080    0.27180    0.49840    1.000
    O41      O        0.87220    0.22290    0.11870    1.000
    O42      O        0.80408    0.20850    0.14850    1.000
    O43      O        0.81114    0.30880    0.45530    1.000
    O44      O        0.76873    0.24550    0.38680    1.000
    O45      O        0.35380    0.40970    0.60700    1.000
    O46      O        0.30900    0.44490    0.52630    1.000
    O47      O        0.28440    0.68410    0.51860    1.000
    O48      O        0.32885    0.74390    0.58780    1.000
    C91      C        0.18280    0.55750    0.45620    1.000
    C92      C        0.16580    0.49090    0.45360    1.000
    C93      C        0.12330    0.47790    0.42190    1.000
    H28      H        0.10590    0.51080    0.40300    1.000
    C94      C        0.10690    0.41620    0.41830    1.000
    C95      C        0.13520    0.36700    0.44480    1.000
    H29      H        0.12530    0.32540    0.44130    1.000
    C96      C        0.17610    0.37920    0.47490    1.000
    C97      C        0.19250    0.44110    0.48150    1.000
    H30      H        0.22050    0.44910    0.50380    1.000
    C98      C        0.20550    0.32570    0.50440    1.000
    C99      C        0.06400    0.40240    0.38800    1.000
    C100     C        0.02750    0.38550    0.36660    1.000
    C101     C        0.98570    0.36360    0.34260    1.000
    C102     C        0.94980    0.34150    0.32470    1.000
    C103     C        0.90790    0.31530    0.30670    1.000
    C104     C        0.89620    0.28770    0.24350    1.000
    H31      H        0.91610    0.28970    0.20880    1.000
    C105     C        0.85550    0.25710    0.23070    1.000
    C106     C        0.82490    0.25530    0.28210    1.000
    H32      H        0.79760    0.23490    0.27330    1.000
    C107     C        0.83460    0.28380    0.34660    1.000
    C108     C        0.87630    0.31250    0.35930    1.000
    H33      H        0.88390    0.33010    0.40240    1.000
    C109     C        0.84310    0.22750    0.16130    1.000
    C110     C        0.80170    0.27940    0.39930    1.000
    C111     C        0.33800    0.45530    0.57300    1.000
    C112     C        0.35230    0.51960    0.59280    1.000
    C113     C        0.32770    0.57320    0.56730    1.000
    H34      H        0.30210    0.56770    0.53790    1.000
    C114     C        0.34200    0.63480    0.58680    1.000
    C115     C        0.38230    0.64290    0.62670    1.000
    H35      H        0.39310    0.68340    0.63670    1.000
    C116     C        0.40680    0.58940    0.65190    1.000
    C117     C        0.39130    0.52870    0.63360    1.000
    H36      H        0.40770    0.49360    0.64940    1.000
    C118     C        0.44550    0.59650    0.69640    1.000
    C119     C        0.48100    0.59810    0.72820    1.000
    C120     C        0.31650    0.69030    0.56220    1.000
    Dy9      Dy       0.72347    0.82543    0.94115    1.000
    Dy10     Dy       0.81877    0.16970    0.03652    1.000
    O49      O        0.65970    0.89860    0.92700    1.000
    O50      O        0.72000    0.93100    0.98450    1.000
    O51      O        0.74270    0.15990    0.03110    1.000
    O52      O        0.69080    0.22820    0.99840    1.000
    O53      O        0.37220    0.27710    0.61870    1.000
    O54      O        0.30408    0.29150    0.64850    1.000
    O55      O        0.31114    0.19120    0.95530    1.000
    O56      O        0.26873    0.25450    0.88680    1.000
    O57      O        0.85380    0.09030    0.10700    1.000
    O58      O        0.80900    0.05510    0.02630    1.000
    O59      O        0.78440    0.81590    0.01860    1.000
    O60      O        0.82885    0.75610    0.08780    1.000
    C121     C        0.68280    0.94250    0.95620    1.000
    C122     C        0.66580    0.00910    0.95360    1.000
    C123     C        0.62330    0.02210    0.92190    1.000
    H37      H        0.60590    0.98920    0.90300    1.000
    C124     C        0.60690    0.08380    0.91830    1.000
    C125     C        0.63520    0.13300    0.94480    1.000
    H38      H        0.62530    0.17460    0.94130    1.000
    C126     C        0.67610    0.12080    0.97490    1.000
    C127     C        0.69250    0.05890    0.98150    1.000
    H39      H        0.72050    0.05090    0.00380    1.000
    C128     C        0.70550    0.17430    0.00440    1.000
    C129     C        0.56400    0.09760    0.88800    1.000
    C130     C        0.52750    0.11450    0.86660    1.000
    C131     C        0.48570    0.13640    0.84260    1.000
    C132     C        0.44980    0.15850    0.82470    1.000
    C133     C        0.40790    0.18470    0.80670    1.000
    C134     C        0.39620    0.21230    0.74350    1.000
    H40      H        0.41610    0.21030    0.70880    1.000
    C135     C        0.35550    0.24290    0.73070    1.000
    C136     C        0.32490    0.24470    0.78210    1.000
    H41      H        0.29760    0.26510    0.77330    1.000
    C137     C        0.33460    0.21620    0.84660    1.000
    C138     C        0.37630    0.18750    0.85930    1.000
    H42      H        0.38390    0.16990    0.90240    1.000
    C139     C        0.34310    0.27250    0.66130    1.000
    C140     C        0.30170    0.22060    0.89930    1.000
    C141     C        0.83800    0.04470    0.07300    1.000
    C142     C        0.85230    0.98040    0.09280    1.000
    C143     C        0.82770    0.92680    0.06730    1.000
    H43      H        0.80210    0.93230    0.03790    1.000
    C144     C        0.84200    0.86520    0.08680    1.000
    C145     C        0.88230    0.85710    0.12670    1.000
    H44      H        0.89310    0.81660    0.13670    1.000
    C146     C        0.90680    0.91060    0.15190    1.000
    C147     C        0.89130    0.97130    0.13360    1.000
    H45      H        0.90770    0.00640    0.14940    1.000
    C148     C        0.94550    0.90350    0.19640    1.000
    C149     C        0.98100    0.90190    0.22820    1.000
    C150     C        0.81650    0.80970    0.06220    1.000
    Dy11     Dy       0.22347    0.32543    0.94115    1.000
    Dy12     Dy       0.31877    0.66970    0.03652    1.000
    O61      O        0.15970    0.39860    0.92700    1.000
    O62      O        0.22000    0.43100    0.98450    1.000
    O63      O        0.24270    0.65990    0.03110    1.000
    O64      O        0.19080    0.72820    0.99840    1.000
    O65      O        0.87220    0.77710    0.61870    1.000
    O66      O        0.80408    0.79150    0.64850    1.000
    O67      O        0.81114    0.69120    0.95530    1.000
    O68      O        0.76873    0.75450    0.88680    1.000
    O69      O        0.35380    0.59030    0.10700    1.000
    O70      O        0.30900    0.55510    0.02630    1.000
    O71      O        0.28440    0.31590    0.01860    1.000
    O72      O        0.32885    0.25610    0.08780    1.000
    C151     C        0.18280    0.44250    0.95620    1.000
    C152     C        0.16580    0.50910    0.95360    1.000
    C153     C        0.12330    0.52210    0.92190    1.000
    H46      H        0.10590    0.48920    0.90300    1.000
    C154     C        0.10690    0.58380    0.91830    1.000
    C155     C        0.13520    0.63300    0.94480    1.000
    H47      H        0.12530    0.67460    0.94130    1.000
    C156     C        0.17610    0.62080    0.97490    1.000
    C157     C        0.19250    0.55890    0.98150    1.000
    H48      H        0.22050    0.55090    0.00380    1.000
    C158     C        0.20550    0.67430    0.00440    1.000
    C159     C        0.06400    0.59760    0.88800    1.000
    C160     C        0.02750    0.61450    0.86660    1.000
    C161     C        0.98570    0.63640    0.84260    1.000
    C162     C        0.94980    0.65850    0.82470    1.000
    C163     C        0.90790    0.68470    0.80670    1.000
    C164     C        0.89620    0.71230    0.74350    1.000
    H49      H        0.91610    0.71030    0.70880    1.000
    C165     C        0.85550    0.74290    0.73070    1.000
    C166     C        0.82490    0.74470    0.78210    1.000
    H50      H        0.79760    0.76510    0.77330    1.000
    C167     C        0.83460    0.71620    0.84660    1.000
    C168     C        0.87630    0.68750    0.85930    1.000
    H51      H        0.88390    0.66990    0.90240    1.000
    C169     C        0.84310    0.77250    0.66130    1.000
    C170     C        0.80170    0.72060    0.89930    1.000
    C171     C        0.33800    0.54470    0.07300    1.000
    C172     C        0.35230    0.48040    0.09280    1.000
    C173     C        0.32770    0.42680    0.06730    1.000
    H52      H        0.30210    0.43230    0.03790    1.000
    C174     C        0.34200    0.36520    0.08680    1.000
    C175     C        0.38230    0.35710    0.12670    1.000
    H53      H        0.39310    0.31660    0.13670    1.000
    C176     C        0.40680    0.41060    0.15190    1.000
    C177     C        0.39130    0.47130    0.13360    1.000
    H54      H        0.40770    0.50640    0.14940    1.000
    C178     C        0.44550    0.40350    0.19640    1.000
    C179     C        0.48100    0.40190    0.22820    1.000
    C180     C        0.31650    0.30970    0.06220    1.000
    Dy13     Dy       0.27653    0.82543    0.55885    1.000
    Dy14     Dy       0.18123    0.16970    0.46348    1.000
    O73      O        0.34030    0.89860    0.57300    1.000
    O74      O        0.28000    0.93100    0.51550    1.000
    O75      O        0.25730    0.15990    0.46890    1.000
    O76      O        0.30920    0.22820    0.50160    1.000
    O77      O        0.62780    0.27710    0.88130    1.000
    O78      O        0.69592    0.29150    0.85150    1.000
    O79      O        0.68886    0.19120    0.54470    1.000
    O80      O        0.73127    0.25450    0.61320    1.000
    O81      O        0.14620    0.09030    0.39300    1.000
    O82      O        0.19100    0.05510    0.47370    1.000
    O83      O        0.21560    0.81590    0.48140    1.000
    O84      O        0.17115    0.75610    0.41220    1.000
    C181     C        0.31720    0.94250    0.54380    1.000
    C182     C        0.33420    0.00910    0.54640    1.000
    C183     C        0.37670    0.02210    0.57810    1.000
    H55      H        0.39410    0.98920    0.59700    1.000
    C184     C        0.39310    0.08380    0.58170    1.000
    C185     C        0.36480    0.13300    0.55520    1.000
    H56      H        0.37470    0.17460    0.55870    1.000
    C186     C        0.32390    0.12080    0.52510    1.000
    C187     C        0.30750    0.05890    0.51850    1.000
    H57      H        0.27950    0.05090    0.49620    1.000
    C188     C        0.29450    0.17430    0.49560    1.000
    C189     C        0.43600    0.09760    0.61200    1.000
    C190     C        0.47250    0.11450    0.63340    1.000
    C191     C        0.51430    0.13640    0.65740    1.000
    C192     C        0.55020    0.15850    0.67530    1.000
    C193     C        0.59210    0.18470    0.69330    1.000
    C194     C        0.60380    0.21230    0.75650    1.000
    H58      H        0.58390    0.21030    0.79120    1.000
    C195     C        0.64450    0.24290    0.76930    1.000
    C196     C        0.67510    0.24470    0.71790    1.000
    H59      H        0.70240    0.26510    0.72670    1.000
    C197     C        0.66540    0.21620    0.65340    1.000
    C198     C        0.62370    0.18750    0.64070    1.000
    H60      H        0.61610    0.16990    0.59760    1.000
    C199     C        0.65690    0.27250    0.83870    1.000
    C200     C        0.69830    0.22060    0.60070    1.000
    C201     C        0.16200    0.04470    0.42700    1.000
    C202     C        0.14770    0.98040    0.40720    1.000
    C203     C        0.17230    0.92680    0.43270    1.000
    H61      H        0.19790    0.93230    0.46210    1.000
    C204     C        0.15800    0.86520    0.41320    1.000
    C205     C        0.11770    0.85710    0.37330    1.000
    H62      H        0.10690    0.81660    0.36330    1.000
    C206     C        0.09320    0.91060    0.34810    1.000
    C207     C        0.10870    0.97130    0.36640    1.000
    H63      H        0.09230    0.00640    0.35060    1.000
    C208     C        0.05450    0.90350    0.30360    1.000
    C209     C        0.01900    0.90190    0.27180    1.000
    C210     C        0.18350    0.80970    0.43780    1.000
    Dy15     Dy       0.77653    0.32543    0.55885    1.000
    Dy16     Dy       0.68123    0.66970    0.46348    1.000
    O85      O        0.84030    0.39860    0.57300    1.000
    O86      O        0.78000    0.43100    0.51550    1.000
    O87      O        0.75730    0.65990    0.46890    1.000
    O88      O        0.80920    0.72820    0.50160    1.000
    O89      O        0.12780    0.77710    0.88130    1.000
    O90      O        0.19592    0.79150    0.85150    1.000
    O91      O        0.18886    0.69120    0.54470    1.000
    O92      O        0.23127    0.75450    0.61320    1.000
    O93      O        0.64620    0.59030    0.39300    1.000
    O94      O        0.69100    0.55510    0.47370    1.000
    O95      O        0.71560    0.31590    0.48140    1.000
    O96      O        0.67115    0.25610    0.41220    1.000
    C211     C        0.81720    0.44250    0.54380    1.000
    C212     C        0.83420    0.50910    0.54640    1.000
    C213     C        0.87670    0.52210    0.57810    1.000
    H64      H        0.89410    0.48920    0.59700    1.000
    C214     C        0.89310    0.58380    0.58170    1.000
    C215     C        0.86480    0.63300    0.55520    1.000
    H65      H        0.87470    0.67460    0.55870    1.000
    C216     C        0.82390    0.62080    0.52510    1.000
    C217     C        0.80750    0.55890    0.51850    1.000
    H66      H        0.77950    0.55090    0.49620    1.000
    C218     C        0.79450    0.67430    0.49560    1.000
    C219     C        0.93600    0.59760    0.61200    1.000
    C220     C        0.97250    0.61450    0.63340    1.000
    C221     C        0.01430    0.63640    0.65740    1.000
    C222     C        0.05020    0.65850    0.67530    1.000
    C223     C        0.09210    0.68470    0.69330    1.000
    C224     C        0.10380    0.71230    0.75650    1.000
    H67      H        0.08390    0.71030    0.79120    1.000
    C225     C        0.14450    0.74290    0.76930    1.000
    C226     C        0.17510    0.74470    0.71790    1.000
    H68      H        0.20240    0.76510    0.72670    1.000
    C227     C        0.16540    0.71620    0.65340    1.000
    C228     C        0.12370    0.68750    0.64070    1.000
    H69      H        0.11610    0.66990    0.59760    1.000
    C229     C        0.15690    0.77250    0.83870    1.000
    C230     C        0.19830    0.72060    0.60070    1.000
    C231     C        0.66200    0.54470    0.42700    1.000
    C232     C        0.64770    0.48040    0.40720    1.000
    C233     C        0.67230    0.42680    0.43270    1.000
    H70      H        0.69790    0.43230    0.46210    1.000
    C234     C        0.65800    0.36520    0.41320    1.000
    C235     C        0.61770    0.35710    0.37330    1.000
    H71      H        0.60690    0.31660    0.36330    1.000
    C236     C        0.59320    0.41060    0.34810    1.000
    C237     C        0.60870    0.47130    0.36640    1.000
    H72      H        0.59230    0.50640    0.35060    1.000
    C238     C        0.55450    0.40350    0.30360    1.000
    C239     C        0.51900    0.40190    0.27180    1.000
    C240     C        0.68350    0.30970    0.43780    1.000
