# CIF file generated by openbabel 3.1.0, see https://openbabel.org
data_I
_chemical_name_common 'image0'
_cell_length_a 11.029
_cell_length_b 22.762
_cell_length_c 14.48
_cell_angle_alpha 90
_cell_angle_beta 97.147
_cell_angle_gamma 90
_space_group_name_H-M_alt 'P 1'
_space_group_name_Hall 'P 1'
loop_
    _symmetry_equiv_pos_as_xyz
    x,y,z
loop_
    _atom_site_label
    _atom_site_type_symbol
    _atom_site_fract_x
    _atom_site_fract_y
    _atom_site_fract_z
    _atom_site_occupancy
    Cd1      Cd       0.63583    0.92555    0.21634    1.000
    C1       C        0.93750    0.90520    0.27470    1.000
    H1       H        0.91460    0.89160    0.33050    1.000
    C2       C        0.05960    0.90770    0.26600    1.000
    H2       H        0.11720    0.89580    0.31480    1.000
    C3       C        0.09660    0.92812    0.18400    1.000
    C4       C        0.00550    0.94340    0.11340    1.000
    H3       H        0.02570    0.95640    0.05640    1.000
    C5       C        0.88620    0.93930    0.12800    1.000
    H4       H        0.82680    0.94970    0.07940    1.000
    C6       C        0.22500    0.93570    0.16930    1.000
    C7       C        0.58210    0.70910    0.76260    1.000
    H5       H        0.55220    0.70830    0.69970    1.000
    C8       C        0.57730    0.76090    0.80920    1.000
    H6       H        0.54620    0.79440    0.77810    1.000
    C9       C        0.61920    0.76315    0.90320    1.000
    C10      C        0.66580    0.71205    0.94530    1.000
    H7       H        0.69540    0.71160    0.00830    1.000
    C11      C        0.66780    0.66163    0.89250    1.000
    H8       H        0.69940    0.62750    0.92170    1.000
    C12      C        0.61230    0.81717    0.95660    1.000
    N1       N        0.84930    0.92122    0.20760    1.000
    N2       N        0.25670    0.96094    0.09260    1.000
    N3       N        0.37690    0.96008    0.10470    1.000
    N4       N        0.41760    0.93478    0.18600    1.000
    N5       N        0.32200    0.91896    0.22840    1.000
    N6       N        0.62710    0.65922    0.80210    1.000
    N7       N        0.57330    0.86870    0.91910    1.000
    N8       N        0.57770    0.90511    0.99110    1.000
    N9       N        0.61670    0.87661    0.06910    1.000
    N10      N        0.63950    0.82086    0.04890    1.000
    N11      N        0.63610    0.01183    0.13190    1.000
    N12      N        0.69780    0.05254    0.15220    1.000
    N13      N        0.75720    0.09280    0.17310    1.000
    Cd2      Cd       0.36417    0.42555    0.28366    1.000
    C13      C        0.06250    0.40520    0.22530    1.000
    H9       H        0.08540    0.39160    0.16950    1.000
    C14      C        0.94040    0.40770    0.23400    1.000
    H10      H        0.88280    0.39580    0.18520    1.000
    C15      C        0.90340    0.42812    0.31600    1.000
    C16      C        0.99450    0.44340    0.38660    1.000
    H11      H        0.97430    0.45640    0.44360    1.000
    C17      C        0.11380    0.43930    0.37200    1.000
    H12      H        0.17320    0.44970    0.42060    1.000
    C18      C        0.77500    0.43570    0.33070    1.000
    C19      C        0.41790    0.20910    0.73740    1.000
    H13      H        0.44780    0.20830    0.80030    1.000
    C20      C        0.42270    0.26090    0.69080    1.000
    H14      H        0.45380    0.29440    0.72190    1.000
    C21      C        0.38080    0.26315    0.59680    1.000
    C22      C        0.33420    0.21205    0.55470    1.000
    H15      H        0.30460    0.21160    0.49170    1.000
    C23      C        0.33220    0.16163    0.60750    1.000
    H16      H        0.30060    0.12750    0.57830    1.000
    C24      C        0.38770    0.31717    0.54340    1.000
    N14      N        0.15070    0.42122    0.29240    1.000
    N15      N        0.74330    0.46094    0.40740    1.000
    N16      N        0.62310    0.46008    0.39530    1.000
    N17      N        0.58240    0.43478    0.31400    1.000
    N18      N        0.67800    0.41896    0.27160    1.000
    N19      N        0.37290    0.15922    0.69790    1.000
    N20      N        0.42670    0.36870    0.58090    1.000
    N21      N        0.42230    0.40511    0.50890    1.000
    N22      N        0.38330    0.37661    0.43090    1.000
    N23      N        0.36050    0.32086    0.45110    1.000
    N24      N        0.36390    0.51183    0.36810    1.000
    N25      N        0.30220    0.55254    0.34780    1.000
    N26      N        0.24280    0.59280    0.32690    1.000
    Cd3      Cd       0.36417    0.07445    0.78366    1.000
    C25      C        0.06250    0.09480    0.72530    1.000
    H17      H        0.08540    0.10840    0.66950    1.000
    C26      C        0.94040    0.09230    0.73400    1.000
    H18      H        0.88280    0.10420    0.68520    1.000
    C27      C        0.90340    0.07188    0.81600    1.000
    C28      C        0.99450    0.05660    0.88660    1.000
    H19      H        0.97430    0.04360    0.94360    1.000
    C29      C        0.11380    0.06070    0.87200    1.000
    H20      H        0.17320    0.05030    0.92060    1.000
    C30      C        0.77500    0.06430    0.83070    1.000
    C31      C        0.41790    0.29090    0.23740    1.000
    H21      H        0.44780    0.29170    0.30030    1.000
    C32      C        0.42270    0.23910    0.19080    1.000
    H22      H        0.45380    0.20560    0.22190    1.000
    C33      C        0.38080    0.23685    0.09680    1.000
    C34      C        0.33420    0.28795    0.05470    1.000
    H23      H        0.30460    0.28840    0.99170    1.000
    C35      C        0.33220    0.33837    0.10750    1.000
    H24      H        0.30060    0.37250    0.07830    1.000
    C36      C        0.38770    0.18283    0.04340    1.000
    N27      N        0.15070    0.07878    0.79240    1.000
    N28      N        0.74330    0.03906    0.90740    1.000
    N29      N        0.62310    0.03992    0.89530    1.000
    N30      N        0.58240    0.06522    0.81400    1.000
    N31      N        0.67800    0.08104    0.77160    1.000
    N32      N        0.37290    0.34078    0.19790    1.000
    N33      N        0.42670    0.13130    0.08090    1.000
    N34      N        0.42230    0.09489    0.00890    1.000
    N35      N        0.38330    0.12339    0.93090    1.000
    N36      N        0.36050    0.17914    0.95110    1.000
    N37      N        0.36390    0.98817    0.86810    1.000
    N38      N        0.30220    0.94746    0.84780    1.000
    N39      N        0.24280    0.90720    0.82690    1.000
    Cd4      Cd       0.63583    0.57445    0.71634    1.000
    C37      C        0.93750    0.59480    0.77470    1.000
    H25      H        0.91460    0.60840    0.83050    1.000
    C38      C        0.05960    0.59230    0.76600    1.000
    H26      H        0.11720    0.60420    0.81480    1.000
    C39      C        0.09660    0.57188    0.68400    1.000
    C40      C        0.00550    0.55660    0.61340    1.000
    H27      H        0.02570    0.54360    0.55640    1.000
    C41      C        0.88620    0.56070    0.62800    1.000
    H28      H        0.82680    0.55030    0.57940    1.000
    C42      C        0.22500    0.56430    0.66930    1.000
    C43      C        0.58210    0.79090    0.26260    1.000
    H29      H        0.55220    0.79170    0.19970    1.000
    C44      C        0.57730    0.73910    0.30920    1.000
    H30      H        0.54620    0.70560    0.27810    1.000
    C45      C        0.61920    0.73685    0.40320    1.000
    C46      C        0.66580    0.78795    0.44530    1.000
    H31      H        0.69540    0.78840    0.50830    1.000
    C47      C        0.66780    0.83837    0.39250    1.000
    H32      H        0.69940    0.87250    0.42170    1.000
    C48      C        0.61230    0.68283    0.45660    1.000
    N40      N        0.84930    0.57878    0.70760    1.000
    N41      N        0.25670    0.53906    0.59260    1.000
    N42      N        0.37690    0.53992    0.60470    1.000
    N43      N        0.41760    0.56522    0.68600    1.000
    N44      N        0.32200    0.58104    0.72840    1.000
    N45      N        0.62710    0.84078    0.30210    1.000
    N46      N        0.57330    0.63130    0.41910    1.000
    N47      N        0.57770    0.59489    0.49110    1.000
    N48      N        0.61670    0.62339    0.56910    1.000
    N49      N        0.63950    0.67914    0.54890    1.000
    N50      N        0.63610    0.48817    0.63190    1.000
    N51      N        0.69780    0.44746    0.65220    1.000
    N52      N        0.75720    0.40720    0.67310    1.000
    Cd5      Cd       0.50000    0.00000    0.00000    1.000
    Cd6      Cd       0.50000    0.50000    0.50000    1.000
