# CIF file generated by openbabel 3.1.0, see https://openbabel.org
data_I
_chemical_name_common 'image0'
_cell_length_a 25.791
_cell_length_b 25.791
_cell_length_c 11.1284
_cell_angle_alpha 90
_cell_angle_beta 90
_cell_angle_gamma 120
_space_group_name_H-M_alt 'P 1'
_space_group_name_Hall 'P 1'
loop_
    _symmetry_equiv_pos_as_xyz
    x,y,z
loop_
    _atom_site_label
    _atom_site_type_symbol
    _atom_site_fract_x
    _atom_site_fract_y
    _atom_site_fract_z
    _atom_site_occupancy
    S1       S        0.67350    0.19479    0.87524    1.000
    N1       N        0.56540    0.09032    0.92212    1.000
    C1       C        0.61063    0.13373    0.90310    1.000
    N2       N        0.26868    0.87751    0.42433    1.000
    N3       N        0.30851    0.86040    0.38979    1.000
    H1       H        0.30317    0.83753    0.32813    1.000
    N4       N        0.45172    0.98120    0.80919    1.000
    N5       N        0.45123    0.02882    0.75805    1.000
    H2       H        0.47107    0.06513    0.78613    1.000
    C2       C        0.29347    0.91128    0.52233    1.000
    C3       C        0.34940    0.91618    0.54873    1.000
    C4       C        0.35738    0.88274    0.46133    1.000
    C5       C        0.40816    0.87250    0.43693    1.000
    H3       H        0.40117    0.83613    0.47683    1.000
    H4       H        0.44497    0.90613    0.46693    1.000
    H5       H        0.41157    0.86853    0.35103    1.000
    C6       C        0.26165    0.93695    0.58993    1.000
    H6       H        0.25697    0.96483    0.53883    1.000
    H7       H        0.28477    0.95783    0.66053    1.000
    H8       H        0.22247    0.90493    0.61443    1.000
    C7       C        0.41673    0.01369    0.65933    1.000
    C8       C        0.39208    0.95262    0.64403    1.000
    C9       C        0.41583    0.93433    0.73963    1.000
    C10      C        0.40473    0.87303    0.76543    1.000
    H9       H        0.43907    0.86993    0.74003    1.000
    H10      H        0.36937    0.84393    0.72193    1.000
    H11      H        0.39847    0.86523    0.85093    1.000
    C11      C        0.41101    0.05907    0.58703    1.000
    H12      H        0.38717    0.07223    0.63093    1.000
    H13      H        0.39157    0.04143    0.51123    1.000
    H14      H        0.45047    0.09303    0.57183    1.000
    S2       S        0.32650    0.80521    0.12476    1.000
    N6       N        0.43460    0.90968    0.07788    1.000
    C12      C        0.38937    0.86627    0.09690    1.000
    N7       N        0.73132    0.12249    0.57567    1.000
    N8       N        0.69149    0.13960    0.61021    1.000
    H15      H        0.69683    0.16247    0.67187    1.000
    N9       N        0.54828    0.01880    0.19081    1.000
    N10      N        0.54877    0.97118    0.24195    1.000
    H16      H        0.52893    0.93487    0.21387    1.000
    C13      C        0.70653    0.08872    0.47767    1.000
    C14      C        0.65060    0.08382    0.45127    1.000
    C15      C        0.64262    0.11726    0.53867    1.000
    C16      C        0.59184    0.12750    0.56307    1.000
    H17      H        0.59883    0.16387    0.52317    1.000
    H18      H        0.55503    0.09387    0.53307    1.000
    H19      H        0.58843    0.13147    0.64897    1.000
    C17      C        0.73835    0.06305    0.41007    1.000
    H20      H        0.74303    0.03517    0.46117    1.000
    H21      H        0.71523    0.04217    0.33947    1.000
    H22      H        0.77753    0.09507    0.38557    1.000
    C18      C        0.58327    0.98631    0.34067    1.000
    C19      C        0.60792    0.04738    0.35597    1.000
    C20      C        0.58417    0.06567    0.26037    1.000
    C21      C        0.59527    0.12697    0.23457    1.000
    H23      H        0.56093    0.13007    0.25997    1.000
    H24      H        0.63063    0.15607    0.27807    1.000
    H25      H        0.60153    0.13477    0.14907    1.000
    C22      C        0.58899    0.94093    0.41297    1.000
    H26      H        0.61283    0.92777    0.36907    1.000
    H27      H        0.60843    0.95857    0.48877    1.000
    H28      H        0.54953    0.90697    0.42817    1.000
    Cd1      Cd       0.50000    0.00000    0.00000    1.000
    N11      N        0.45582    0.05783    0.09100    1.000
    N12      N        0.47293    0.11477    0.05646    1.000
    H29      H        0.49580    0.13230    0.99480    1.000
    N13      N        0.35213    0.13718    0.47586    1.000
    N14      N        0.30451    0.08907    0.42472    1.000
    H30      H        0.26820    0.07260    0.45280    1.000
    C23      C        0.42205    0.04885    0.18900    1.000
    C24      C        0.41715    0.09988    0.21540    1.000
    C25      C        0.45059    0.14130    0.12800    1.000
    C26      C        0.46083    0.20232    0.10360    1.000
    H31      H        0.49720    0.23170    0.14350    1.000
    H32      H        0.42720    0.20550    0.13360    1.000
    H33      H        0.46480    0.20970    0.01770    1.000
    C27      C        0.39638    0.99136    0.25660    1.000
    H34      H        0.36850    0.95880    0.20550    1.000
    H35      H        0.37550    0.99360    0.32720    1.000
    H36      H        0.42840    0.98420    0.28110    1.000
    C28      C        0.31964    0.06970    0.32600    1.000
    C29      C        0.38071    0.10612    0.31070    1.000
    C30      C        0.39900    0.14816    0.40630    1.000
    C31      C        0.46030    0.19836    0.43210    1.000
    H37      H        0.46340    0.23580    0.40670    1.000
    H38      H        0.48940    0.19210    0.38860    1.000
    H39      H        0.46810    0.19990    0.51760    1.000
    C32      C        0.27426    0.01860    0.25370    1.000
    H40      H        0.26110    0.98160    0.29760    1.000
    H41      H        0.29190    0.01680    0.17790    1.000
    H42      H        0.24030    0.02410    0.23850    1.000
    S3       S        0.13854    0.14538    0.54191    1.000
    N15      N        0.24301    0.14175    0.58879    1.000
    C33      C        0.19960    0.14357    0.56977    1.000
    N16      N        0.21085    0.27550    0.24233    1.000
    N17      N        0.19374    0.21856    0.27687    1.000
    H43      H        0.17087    0.20103    0.33853    1.000
    N18      N        0.31454    0.19615    0.85747    1.000
    N19      N        0.36216    0.24426    0.90861    1.000
    H44      H        0.39847    0.26073    0.88053    1.000
    C34      C        0.24462    0.28448    0.14433    1.000
    C35      C        0.24952    0.23345    0.11793    1.000
    C36      C        0.21608    0.19203    0.20533    1.000
    C37      C        0.20584    0.13101    0.22973    1.000
    H45      H        0.16947    0.10163    0.18983    1.000
    H46      H        0.23947    0.12783    0.19973    1.000
    H47      H        0.20187    0.12363    0.31563    1.000
    C38      C        0.27029    0.34197    0.07673    1.000
    H48      H        0.29817    0.37453    0.12783    1.000
    H49      H        0.29117    0.33973    0.00613    1.000
    H50      H        0.23827    0.34913    0.05223    1.000
    C39      C        0.34703    0.26363    0.00733    1.000
    C40      C        0.28596    0.22721    0.02263    1.000
    C41      C        0.26767    0.18517    0.92703    1.000
    C42      C        0.20637    0.13497    0.90123    1.000
    H51      H        0.20327    0.09753    0.92663    1.000
    H52      H        0.17727    0.14123    0.94473    1.000
    H53      H        0.19857    0.13343    0.81573    1.000
    C43      C        0.39241    0.31473    0.07963    1.000
    H54      H        0.40557    0.35173    0.03573    1.000
    H55      H        0.37477    0.31653    0.15543    1.000
    H56      H        0.42637    0.30923    0.09483    1.000
    S4       S        0.52812    0.18796    0.79143    1.000
    N20      N        0.42365    0.19159    0.74455    1.000
    C44      C        0.46706    0.18977    0.76357    1.000
    Cd2      Cd       0.33333    0.16667    0.66667    1.000
    S5       S        0.34017    0.52812    0.20857    1.000
    N21      N        0.23207    0.42365    0.25545    1.000
    C45      C        0.27730    0.46706    0.23643    1.000
    N22      N        0.93534    0.21085    0.75767    1.000
    N23      N        0.97517    0.19374    0.72313    1.000
    H57      H        0.96983    0.17087    0.66147    1.000
    N24      N        0.11838    0.31454    0.14253    1.000
    N25      N        0.11789    0.36216    0.09139    1.000
    H58      H        0.13773    0.39847    0.11947    1.000
    C46      C        0.96013    0.24462    0.85567    1.000
    C47      C        0.01606    0.24952    0.88207    1.000
    C48      C        0.02404    0.21608    0.79467    1.000
    C49      C        0.07482    0.20584    0.77027    1.000
    H59      H        0.06783    0.16947    0.81017    1.000
    H60      H        0.11163    0.23947    0.80027    1.000
    H61      H        0.07823    0.20187    0.68437    1.000
    C50      C        0.92831    0.27029    0.92327    1.000
    H62      H        0.92363    0.29817    0.87217    1.000
    H63      H        0.95143    0.29117    0.99387    1.000
    H64      H        0.88913    0.23827    0.94777    1.000
    C51      C        0.08339    0.34703    0.99267    1.000
    C52      C        0.05874    0.28596    0.97737    1.000
    C53      C        0.08249    0.26767    0.07297    1.000
    C54      C        0.07139    0.20637    0.09877    1.000
    H65      H        0.10573    0.20327    0.07337    1.000
    H66      H        0.03603    0.17727    0.05527    1.000
    H67      H        0.06513    0.19857    0.18427    1.000
    C55      C        0.07767    0.39241    0.92037    1.000
    H68      H        0.05383    0.40557    0.96427    1.000
    H69      H        0.05823    0.37477    0.84457    1.000
    H70      H        0.11713    0.42637    0.90517    1.000
    S6       S        0.99317    0.13854    0.45809    1.000
    N26      N        0.10127    0.24301    0.41121    1.000
    C56      C        0.05604    0.19960    0.43023    1.000
    N27      N        0.39799    0.45582    0.90900    1.000
    N28      N        0.35816    0.47293    0.94354    1.000
    H71      H        0.36350    0.49580    0.00520    1.000
    N29      N        0.21495    0.35213    0.52414    1.000
    N30      N        0.21544    0.30451    0.57528    1.000
    H72      H        0.19560    0.26820    0.54720    1.000
    C57      C        0.37320    0.42205    0.81100    1.000
    C58      C        0.31727    0.41715    0.78460    1.000
    C59      C        0.30929    0.45059    0.87200    1.000
    C60      C        0.25851    0.46083    0.89640    1.000
    H73      H        0.26550    0.49720    0.85650    1.000
    H74      H        0.22170    0.42720    0.86640    1.000
    H75      H        0.25510    0.46480    0.98230    1.000
    C61      C        0.40502    0.39638    0.74340    1.000
    H76      H        0.40970    0.36850    0.79450    1.000
    H77      H        0.38190    0.37550    0.67280    1.000
    H78      H        0.44420    0.42840    0.71890    1.000
    C62      C        0.24994    0.31964    0.67400    1.000
    C63      C        0.27459    0.38071    0.68930    1.000
    C64      C        0.25084    0.39900    0.59370    1.000
    C65      C        0.26194    0.46030    0.56790    1.000
    H79      H        0.22760    0.46340    0.59330    1.000
    H80      H        0.29730    0.48940    0.61140    1.000
    H81      H        0.26820    0.46810    0.48240    1.000
    C66      C        0.25566    0.27426    0.74630    1.000
    H82      H        0.27950    0.26110    0.70240    1.000
    H83      H        0.27510    0.29190    0.82210    1.000
    H84      H        0.21620    0.24030    0.76150    1.000
    Cd3      Cd       0.16667    0.33333    0.33333    1.000
    N31      N        0.12249    0.39116    0.42433    1.000
    N32      N        0.13960    0.44810    0.38979    1.000
    H85      H        0.16247    0.46563    0.32813    1.000
    N33      N        0.01880    0.47051    0.80919    1.000
    N34      N        0.97118    0.42240    0.75805    1.000
    H86      H        0.93487    0.40593    0.78613    1.000
    C67      C        0.08872    0.38218    0.52233    1.000
    C68      C        0.08382    0.43321    0.54873    1.000
    C69      C        0.11726    0.47463    0.46133    1.000
    C70      C        0.12750    0.53565    0.43693    1.000
    H87      H        0.16387    0.56503    0.47683    1.000
    H88      H        0.09387    0.53883    0.46693    1.000
    H89      H        0.13147    0.54303    0.35103    1.000
    C71      C        0.06305    0.32469    0.58993    1.000
    H90      H        0.03517    0.29213    0.53883    1.000
    H91      H        0.04217    0.32693    0.66053    1.000
    H92      H        0.09507    0.31753    0.61443    1.000
    C72      C        0.98631    0.40303    0.65933    1.000
    C73      C        0.04738    0.43945    0.64403    1.000
    C74      C        0.06567    0.48149    0.73963    1.000
    C75      C        0.12697    0.53169    0.76543    1.000
    H93      H        0.13007    0.56913    0.74003    1.000
    H94      H        0.15607    0.52543    0.72193    1.000
    H95      H        0.13477    0.53323    0.85093    1.000
    C76      C        0.94093    0.35193    0.58703    1.000
    H96      H        0.92777    0.31493    0.63093    1.000
    H97      H        0.95857    0.35013    0.51123    1.000
    H98      H        0.90697    0.35743    0.57183    1.000
    S7       S        0.80521    0.47871    0.87524    1.000
    N35      N        0.90968    0.47508    0.92212    1.000
    C77      C        0.86627    0.47690    0.90310    1.000
    N36      N        0.87751    0.60884    0.57567    1.000
    N37      N        0.86040    0.55190    0.61021    1.000
    H99      H        0.83753    0.53437    0.67187    1.000
    N38      N        0.98120    0.52949    0.19081    1.000
    N39      N        0.02882    0.57760    0.24195    1.000
    H100     H        0.06513    0.59407    0.21387    1.000
    C78      C        0.91128    0.61782    0.47767    1.000
    C79      C        0.91618    0.56679    0.45127    1.000
    C80      C        0.88274    0.52537    0.53867    1.000
    C81      C        0.87250    0.46435    0.56307    1.000
    H101     H        0.83613    0.43497    0.52317    1.000
    H102     H        0.90613    0.46117    0.53307    1.000
    H103     H        0.86853    0.45697    0.64897    1.000
    C82      C        0.93695    0.67531    0.41007    1.000
    H104     H        0.96483    0.70787    0.46117    1.000
    H105     H        0.95783    0.67307    0.33947    1.000
    H106     H        0.90493    0.68247    0.38557    1.000
    C83      C        0.01369    0.59697    0.34067    1.000
    C84      C        0.95262    0.56055    0.35597    1.000
    C85      C        0.93433    0.51851    0.26037    1.000
    C86      C        0.87303    0.46831    0.23457    1.000
    H107     H        0.86993    0.43087    0.25997    1.000
    H108     H        0.84393    0.47457    0.27807    1.000
    H109     H        0.86523    0.46677    0.14907    1.000
    C87      C        0.05907    0.64807    0.41297    1.000
    H110     H        0.07223    0.68507    0.36907    1.000
    H111     H        0.04143    0.64987    0.48877    1.000
    H112     H        0.09303    0.64257    0.42817    1.000
    S8       S        0.19479    0.52129    0.12476    1.000
    N40      N        0.09032    0.52492    0.07788    1.000
    C88      C        0.13373    0.52310    0.09690    1.000
    Cd4      Cd       0.00000    0.50000    0.00000    1.000
    S9       S        0.00683    0.86146    0.54191    1.000
    N41      N        0.89873    0.75699    0.58879    1.000
    C89      C        0.94396    0.80040    0.56977    1.000
    N42      N        0.60201    0.54418    0.09100    1.000
    N43      N        0.64184    0.52707    0.05646    1.000
    H113     H        0.63650    0.50420    0.99480    1.000
    N44      N        0.78505    0.64787    0.47586    1.000
    N45      N        0.78456    0.69549    0.42472    1.000
    H114     H        0.80440    0.73180    0.45280    1.000
    C90      C        0.62680    0.57795    0.18900    1.000
    C91      C        0.68273    0.58285    0.21540    1.000
    C92      C        0.69071    0.54941    0.12800    1.000
    C93      C        0.74149    0.53917    0.10360    1.000
    H115     H        0.73450    0.50280    0.14350    1.000
    H116     H        0.77830    0.57280    0.13360    1.000
    H117     H        0.74490    0.53520    0.01770    1.000
    C94      C        0.59498    0.60362    0.25660    1.000
    H118     H        0.59030    0.63150    0.20550    1.000
    H119     H        0.61810    0.62450    0.32720    1.000
    H120     H        0.55580    0.57160    0.28110    1.000
    C95      C        0.75006    0.68036    0.32600    1.000
    C96      C        0.72541    0.61929    0.31070    1.000
    C97      C        0.74916    0.60100    0.40630    1.000
    C98      C        0.73806    0.53970    0.43210    1.000
    H121     H        0.77240    0.53660    0.40670    1.000
    H122     H        0.70270    0.51060    0.38860    1.000
    H123     H        0.73180    0.53190    0.51760    1.000
    C99      C        0.74434    0.72574    0.25370    1.000
    H124     H        0.72050    0.73890    0.29760    1.000
    H125     H        0.72490    0.70810    0.17790    1.000
    H126     H        0.78380    0.75970    0.23850    1.000
    S10      S        0.65983    0.47188    0.79143    1.000
    N46      N        0.76793    0.57635    0.74455    1.000
    C100     C        0.72270    0.53294    0.76357    1.000
    N47      N        0.06466    0.78915    0.24233    1.000
    N48      N        0.02483    0.80626    0.27687    1.000
    H127     H        0.03017    0.82913    0.33853    1.000
    N49      N        0.88162    0.68546    0.85747    1.000
    N50      N        0.88211    0.63784    0.90861    1.000
    H128     H        0.86227    0.60153    0.88053    1.000
    C101     C        0.03987    0.75538    0.14433    1.000
    C102     C        0.98394    0.75048    0.11793    1.000
    C103     C        0.97596    0.78392    0.20533    1.000
    C104     C        0.92518    0.79416    0.22973    1.000
    H129     H        0.93217    0.83053    0.18983    1.000
    H130     H        0.88837    0.76053    0.19973    1.000
    H131     H        0.92177    0.79813    0.31563    1.000
    C105     C        0.07169    0.72971    0.07673    1.000
    H132     H        0.07637    0.70183    0.12783    1.000
    H133     H        0.04857    0.70883    0.00613    1.000
    H134     H        0.11087    0.76173    0.05223    1.000
    C106     C        0.91661    0.65297    0.00733    1.000
    C107     C        0.94126    0.71404    0.02263    1.000
    C108     C        0.91751    0.73233    0.92703    1.000
    C109     C        0.92861    0.79363    0.90123    1.000
    H135     H        0.89427    0.79673    0.92663    1.000
    H136     H        0.96397    0.82273    0.94473    1.000
    H137     H        0.93487    0.80143    0.81573    1.000
    C110     C        0.92233    0.60759    0.07963    1.000
    H138     H        0.94617    0.59443    0.03573    1.000
    H139     H        0.94177    0.62523    0.15543    1.000
    H140     H        0.88287    0.57363    0.09483    1.000
    Cd5      Cd       0.83333    0.66667    0.66667    1.000
    N51      N        0.78915    0.72450    0.75767    1.000
    N52      N        0.80626    0.78144    0.72313    1.000
    H141     H        0.82913    0.79897    0.66147    1.000
    N53      N        0.68546    0.80385    0.14253    1.000
    N54      N        0.63784    0.75574    0.09139    1.000
    H142     H        0.60153    0.73927    0.11947    1.000
    C111     C        0.75538    0.71552    0.85567    1.000
    C112     C        0.75048    0.76655    0.88207    1.000
    C113     C        0.78392    0.80797    0.79467    1.000
    C114     C        0.79416    0.86899    0.77027    1.000
    H143     H        0.83053    0.89837    0.81017    1.000
    H144     H        0.76053    0.87217    0.80027    1.000
    H145     H        0.79813    0.87637    0.68437    1.000
    C115     C        0.72971    0.65803    0.92327    1.000
    H146     H        0.70183    0.62547    0.87217    1.000
    H147     H        0.70883    0.66027    0.99387    1.000
    H148     H        0.76173    0.65087    0.94777    1.000
    C116     C        0.65297    0.73637    0.99267    1.000
    C117     C        0.71404    0.77279    0.97737    1.000
    C118     C        0.73233    0.81483    0.07297    1.000
    C119     C        0.79363    0.86503    0.09877    1.000
    H149     H        0.79673    0.90247    0.07337    1.000
    H150     H        0.82273    0.85877    0.05527    1.000
    H151     H        0.80143    0.86657    0.18427    1.000
    C120     C        0.60759    0.68527    0.92037    1.000
    H152     H        0.59443    0.64827    0.96427    1.000
    H153     H        0.62523    0.68347    0.84457    1.000
    H154     H        0.57363    0.69077    0.90517    1.000
    S11      S        0.47188    0.81204    0.20857    1.000
    N55      N        0.57635    0.80841    0.25545    1.000
    C121     C        0.53294    0.81023    0.23643    1.000
    N56      N        0.54418    0.94217    0.90900    1.000
    N57      N        0.52707    0.88523    0.94354    1.000
    H155     H        0.50420    0.86770    0.00520    1.000
    N58      N        0.64787    0.86282    0.52414    1.000
    N59      N        0.69549    0.91093    0.57528    1.000
    H156     H        0.73180    0.92740    0.54720    1.000
    C122     C        0.57795    0.95115    0.81100    1.000
    C123     C        0.58285    0.90012    0.78460    1.000
    C124     C        0.54941    0.85870    0.87200    1.000
    C125     C        0.53917    0.79768    0.89640    1.000
    H157     H        0.50280    0.76830    0.85650    1.000
    H158     H        0.57280    0.79450    0.86640    1.000
    H159     H        0.53520    0.79030    0.98230    1.000
    C126     C        0.60362    0.00864    0.74340    1.000
    H160     H        0.63150    0.04120    0.79450    1.000
    H161     H        0.62450    0.00640    0.67280    1.000
    H162     H        0.57160    0.01580    0.71890    1.000
    C127     C        0.68036    0.93030    0.67400    1.000
    C128     C        0.61929    0.89388    0.68930    1.000
    C129     C        0.60100    0.85184    0.59370    1.000
    C130     C        0.53970    0.80164    0.56790    1.000
    H163     H        0.53660    0.76420    0.59330    1.000
    H164     H        0.51060    0.80790    0.61140    1.000
    H165     H        0.53190    0.80010    0.48240    1.000
    C131     C        0.72574    0.98140    0.74630    1.000
    H166     H        0.73890    0.01840    0.70240    1.000
    H167     H        0.70810    0.98320    0.82210    1.000
    H168     H        0.75970    0.97590    0.76150    1.000
    S12      S        0.86146    0.85462    0.45809    1.000
    N60      N        0.75699    0.85825    0.41121    1.000
    C132     C        0.80040    0.85643    0.43023    1.000
    Cd6      Cd       0.66667    0.83333    0.33333    1.000
    N61      N        0.94217    0.39799    0.09100    1.000
    N62      N        0.88523    0.35816    0.05646    1.000
    H169     H        0.86770    0.36350    0.99480    1.000
    N63      N        0.86282    0.21495    0.47586    1.000
    N64      N        0.91093    0.21544    0.42472    1.000
    H170     H        0.92740    0.19560    0.45280    1.000
    C133     C        0.95115    0.37320    0.18900    1.000
    C134     C        0.90012    0.31727    0.21540    1.000
    C135     C        0.85870    0.30929    0.12800    1.000
    C136     C        0.79768    0.25851    0.10360    1.000
    H171     H        0.76830    0.26550    0.14350    1.000
    H172     H        0.79450    0.22170    0.13360    1.000
    H173     H        0.79030    0.25510    0.01770    1.000
    C137     C        0.00864    0.40502    0.25660    1.000
    H174     H        0.04120    0.40970    0.20550    1.000
    H175     H        0.00640    0.38190    0.32720    1.000
    H176     H        0.01580    0.44420    0.28110    1.000
    C138     C        0.93030    0.24994    0.32600    1.000
    C139     C        0.89388    0.27459    0.31070    1.000
    C140     C        0.85184    0.25084    0.40630    1.000
    C141     C        0.80164    0.26194    0.43210    1.000
    H177     H        0.76420    0.22760    0.40670    1.000
    H178     H        0.80790    0.29730    0.38860    1.000
    H179     H        0.80010    0.26820    0.51760    1.000
    C142     C        0.98140    0.25566    0.25370    1.000
    H180     H        0.01840    0.27950    0.29760    1.000
    H181     H        0.98320    0.27510    0.17790    1.000
    H182     H        0.97590    0.21620    0.23850    1.000
    S13      S        0.85462    0.99317    0.54191    1.000
    N65      N        0.85825    0.10127    0.58879    1.000
    C143     C        0.85643    0.05604    0.56977    1.000
    N66      N        0.72450    0.93534    0.24233    1.000
    N67      N        0.78144    0.97517    0.27687    1.000
    H183     H        0.79897    0.96983    0.33853    1.000
    N68      N        0.80385    0.11838    0.85747    1.000
    N69      N        0.75574    0.11789    0.90861    1.000
    H184     H        0.73927    0.13773    0.88053    1.000
    C144     C        0.71552    0.96013    0.14433    1.000
    C145     C        0.76655    0.01606    0.11793    1.000
    C146     C        0.80797    0.02404    0.20533    1.000
    C147     C        0.86899    0.07482    0.22973    1.000
    H185     H        0.89837    0.06783    0.18983    1.000
    H186     H        0.87217    0.11163    0.19973    1.000
    H187     H        0.87637    0.07823    0.31563    1.000
    C148     C        0.65803    0.92831    0.07673    1.000
    H188     H        0.62547    0.92363    0.12783    1.000
    H189     H        0.66027    0.95143    0.00613    1.000
    H190     H        0.65087    0.88913    0.05223    1.000
    C149     C        0.73637    0.08339    0.00733    1.000
    C150     C        0.77279    0.05874    0.02263    1.000
    C151     C        0.81483    0.08249    0.92703    1.000
    C152     C        0.86503    0.07139    0.90123    1.000
    H191     H        0.90247    0.10573    0.92663    1.000
    H192     H        0.85877    0.03603    0.94473    1.000
    H193     H        0.86657    0.06513    0.81573    1.000
    C153     C        0.68527    0.07767    0.07963    1.000
    H194     H        0.64827    0.05383    0.03573    1.000
    H195     H        0.68347    0.05823    0.15543    1.000
    H196     H        0.69077    0.11713    0.09483    1.000
    S14      S        0.81204    0.34017    0.79143    1.000
    N70      N        0.80841    0.23207    0.74455    1.000
    C154     C        0.81023    0.27730    0.76357    1.000
    Cd7      Cd       0.83333    0.16667    0.66667    1.000
    N71      N        0.60884    0.73132    0.42433    1.000
    N72      N        0.55190    0.69149    0.38979    1.000
    H197     H        0.53437    0.69683    0.32813    1.000
    N73      N        0.52949    0.54828    0.80919    1.000
    N74      N        0.57760    0.54877    0.75805    1.000
    H198     H        0.59407    0.52893    0.78613    1.000
    C155     C        0.61782    0.70653    0.52233    1.000
    C156     C        0.56679    0.65060    0.54873    1.000
    C157     C        0.52537    0.64262    0.46133    1.000
    C158     C        0.46435    0.59184    0.43693    1.000
    H199     H        0.43497    0.59883    0.47683    1.000
    H200     H        0.46117    0.55503    0.46693    1.000
    H201     H        0.45697    0.58843    0.35103    1.000
    C159     C        0.67531    0.73835    0.58993    1.000
    H202     H        0.70787    0.74303    0.53883    1.000
    H203     H        0.67307    0.71523    0.66053    1.000
    H204     H        0.68247    0.77753    0.61443    1.000
    C160     C        0.59697    0.58327    0.65933    1.000
    C161     C        0.56055    0.60792    0.64403    1.000
    C162     C        0.51851    0.58417    0.73963    1.000
    C163     C        0.46831    0.59527    0.76543    1.000
    H205     H        0.43087    0.56093    0.74003    1.000
    H206     H        0.47457    0.63063    0.72193    1.000
    H207     H        0.46677    0.60153    0.85093    1.000
    C164     C        0.64807    0.58899    0.58703    1.000
    H208     H        0.68507    0.61283    0.63093    1.000
    H209     H        0.64987    0.60843    0.51123    1.000
    H210     H        0.64257    0.54953    0.57183    1.000
    S15      S        0.52129    0.32650    0.87524    1.000
    N75      N        0.52492    0.43460    0.92212    1.000
    C165     C        0.52310    0.38937    0.90310    1.000
    N76      N        0.39116    0.26868    0.57567    1.000
    N77      N        0.44810    0.30851    0.61021    1.000
    H211     H        0.46563    0.30317    0.67187    1.000
    N78      N        0.47051    0.45172    0.19081    1.000
    N79      N        0.42240    0.45123    0.24195    1.000
    H212     H        0.40593    0.47107    0.21387    1.000
    C166     C        0.38218    0.29347    0.47767    1.000
    C167     C        0.43321    0.34940    0.45127    1.000
    C168     C        0.47463    0.35738    0.53867    1.000
    C169     C        0.53565    0.40816    0.56307    1.000
    H213     H        0.56503    0.40117    0.52317    1.000
    H214     H        0.53883    0.44497    0.53307    1.000
    H215     H        0.54303    0.41157    0.64897    1.000
    C170     C        0.32469    0.26165    0.41007    1.000
    H216     H        0.29213    0.25697    0.46117    1.000
    H217     H        0.32693    0.28477    0.33947    1.000
    H218     H        0.31753    0.22247    0.38557    1.000
    C171     C        0.40303    0.41673    0.34067    1.000
    C172     C        0.43945    0.39208    0.35597    1.000
    C173     C        0.48149    0.41583    0.26037    1.000
    C174     C        0.53169    0.40473    0.23457    1.000
    H219     H        0.56913    0.43907    0.25997    1.000
    H220     H        0.52543    0.36937    0.27807    1.000
    H221     H        0.53323    0.39847    0.14907    1.000
    C175     C        0.35193    0.41101    0.41297    1.000
    H222     H        0.31493    0.38717    0.36907    1.000
    H223     H        0.35013    0.39157    0.48877    1.000
    H224     H        0.35743    0.45047    0.42817    1.000
    S16      S        0.47871    0.67350    0.12476    1.000
    N80      N        0.47508    0.56540    0.07788    1.000
    C176     C        0.47690    0.61063    0.09690    1.000
    Cd8      Cd       0.50000    0.50000    0.00000    1.000
    N81      N        0.27550    0.06466    0.75767    1.000
    N82      N        0.21856    0.02483    0.72313    1.000
    H225     H        0.20103    0.03017    0.66147    1.000
    N83      N        0.19615    0.88162    0.14253    1.000
    N84      N        0.24426    0.88211    0.09139    1.000
    H226     H        0.26073    0.86227    0.11947    1.000
    C177     C        0.28448    0.03987    0.85567    1.000
    C178     C        0.23345    0.98394    0.88207    1.000
    C179     C        0.19203    0.97596    0.79467    1.000
    C180     C        0.13101    0.92518    0.77027    1.000
    H227     H        0.10163    0.93217    0.81017    1.000
    H228     H        0.12783    0.88837    0.80027    1.000
    H229     H        0.12363    0.92177    0.68437    1.000
    C181     C        0.34197    0.07169    0.92327    1.000
    H230     H        0.37453    0.07637    0.87217    1.000
    H231     H        0.33973    0.04857    0.99387    1.000
    H232     H        0.34913    0.11087    0.94777    1.000
    C182     C        0.26363    0.91661    0.99267    1.000
    C183     C        0.22721    0.94126    0.97737    1.000
    C184     C        0.18517    0.91751    0.07297    1.000
    C185     C        0.13497    0.92861    0.09877    1.000
    H233     H        0.09753    0.89427    0.07337    1.000
    H234     H        0.14123    0.96397    0.05527    1.000
    H235     H        0.13343    0.93487    0.18427    1.000
    C186     C        0.31473    0.92233    0.92037    1.000
    H236     H        0.35173    0.94617    0.96427    1.000
    H237     H        0.31653    0.94177    0.84457    1.000
    H238     H        0.30923    0.88287    0.90517    1.000
    S17      S        0.18796    0.65983    0.20857    1.000
    N85      N        0.19159    0.76793    0.25545    1.000
    C187     C        0.18977    0.72270    0.23643    1.000
    N86      N        0.05783    0.60201    0.90900    1.000
    N87      N        0.11477    0.64184    0.94354    1.000
    H239     H        0.13230    0.63650    0.00520    1.000
    N88      N        0.13718    0.78505    0.52414    1.000
    N89      N        0.08907    0.78456    0.57528    1.000
    H240     H        0.07260    0.80440    0.54720    1.000
    C188     C        0.04885    0.62680    0.81100    1.000
    C189     C        0.09988    0.68273    0.78460    1.000
    C190     C        0.14130    0.69071    0.87200    1.000
    C191     C        0.20232    0.74149    0.89640    1.000
    H241     H        0.23170    0.73450    0.85650    1.000
    H242     H        0.20550    0.77830    0.86640    1.000
    H243     H        0.20970    0.74490    0.98230    1.000
    C192     C        0.99136    0.59498    0.74340    1.000
    H244     H        0.95880    0.59030    0.79450    1.000
    H245     H        0.99360    0.61810    0.67280    1.000
    H246     H        0.98420    0.55580    0.71890    1.000
    C193     C        0.06970    0.75006    0.67400    1.000
    C194     C        0.10612    0.72541    0.68930    1.000
    C195     C        0.14816    0.74916    0.59370    1.000
    C196     C        0.19836    0.73806    0.56790    1.000
    H247     H        0.23580    0.77240    0.59330    1.000
    H248     H        0.19210    0.70270    0.61140    1.000
    H249     H        0.19990    0.73180    0.48240    1.000
    C197     C        0.01860    0.74434    0.74630    1.000
    H250     H        0.98160    0.72050    0.70240    1.000
    H251     H        0.01680    0.72490    0.82210    1.000
    H252     H        0.02410    0.78380    0.76150    1.000
    S18      S        0.14538    0.00683    0.45809    1.000
    N90      N        0.14175    0.89873    0.41121    1.000
    C198     C        0.14357    0.94396    0.43023    1.000
    Cd9      Cd       0.16667    0.83333    0.33333    1.000
