# CIF file generated by openbabel 3.1.0, see https://openbabel.org
data_I
_chemical_name_common 'image0'
_cell_length_a 7.38
_cell_length_b 28.29
_cell_length_c 22.47
_cell_angle_alpha 90
_cell_angle_beta 99.13
_cell_angle_gamma 90
_space_group_name_H-M_alt 'P 1'
_space_group_name_Hall 'P 1'
loop_
    _symmetry_equiv_pos_as_xyz
    x,y,z
loop_
    _atom_site_label
    _atom_site_type_symbol
    _atom_site_fract_x
    _atom_site_fract_y
    _atom_site_fract_z
    _atom_site_occupancy
    C1       C        0.91040    0.08731    0.25540    1.000
    C2       C        0.06340    0.12059    0.27980    1.000
    C3       C        0.02100    0.16242    0.30700    1.000
    H1       H        0.89860    0.16920    0.30850    1.000
    C4       C        0.15420    0.19446    0.33190    1.000
    C5       C        0.33780    0.18303    0.32780    1.000
    H2       H        0.43060    0.20390    0.34350    1.000
    C6       C        0.38300    0.14160    0.30100    1.000
    H3       H        0.50560    0.13520    0.29920    1.000
    C7       C        0.25090    0.10932    0.27690    1.000
    C8       C        0.11200    0.23982    0.36120    1.000
    C9       C        0.95350    0.26561    0.34180    1.000
    H4       H        0.86790    0.25390    0.31040    1.000
    C10      C        0.91990    0.30849    0.36810    1.000
    C11      C        0.05310    0.32650    0.41460    1.000
    H5       H        0.03420    0.35560    0.43180    1.000
    C12      C        0.21450    0.30086    0.43540    1.000
    C13      C        0.23780    0.25780    0.40760    1.000
    H6       H        0.34330    0.24040    0.42090    1.000
    C14      C        0.75220    0.33654    0.34640    1.000
    C15      C        0.58380    0.31398    0.33170    1.000
    H7       H        0.58030    0.28120    0.33400    1.000
    C16      C        0.41850    0.33850    0.31340    1.000
    H8       H        0.30700    0.32250    0.30630    1.000
    C17      C        0.42630    0.38740    0.30620    1.000
    C18      C        0.59350    0.41142    0.31750    1.000
    C19      C        0.75300    0.38505    0.33810    1.000
    H9       H        0.86440    0.40100    0.34660    1.000
    C20      C        0.60840    0.46233    0.30870    1.000
    C21      C        0.36000    0.32040    0.48300    1.000
    C22      C        0.32270    0.34952    0.53020    1.000
    H10      H        0.20100    0.35680    0.53230    1.000
    C23      C        0.45720    0.36790    0.57340    1.000
    C24      C        0.63880    0.35640    0.57090    1.000
    C25      C        0.68340    0.32690    0.52510    1.000
    H11      H        0.80490    0.31940    0.52310    1.000
    C26      C        0.54510    0.30960    0.48410    1.000
    H12      H        0.57530    0.28920    0.45470    1.000
    C27      C        0.40850    0.39921    0.62180    1.000
    O1       O        0.29660    0.06872    0.25272    1.000
    O2       O        0.92460    0.05735    0.21536    1.000
    O3       O        0.76180    0.09121    0.27741    1.000
    O4       O        0.26340    0.41018    0.28770    1.000
    H13      H        0.28380    0.43760    0.27880    1.000
    O5       O        0.46110    0.48561    0.29070    1.000
    O6       O        0.76370    0.48133    0.31958    1.000
    O7       O        0.23820    0.40869    0.62130    1.000
    O8       O        0.53490    0.41591    0.65990    1.000
    O9       O        0.78440    0.37390    0.61150    1.000
    H14      H        0.74570    0.39210    0.63490    1.000
    Zn1      Zn       0.13730    0.04717    0.17419    1.000
    Zn2      Zn       0.55402    0.05087    0.24499    1.000
    C28      C        0.08960    0.58731    0.24460    1.000
    C29      C        0.93660    0.62059    0.22020    1.000
    C30      C        0.97900    0.66242    0.19300    1.000
    H15      H        0.10140    0.66920    0.19150    1.000
    C31      C        0.84580    0.69446    0.16810    1.000
    C32      C        0.66220    0.68303    0.17220    1.000
    H16      H        0.56940    0.70390    0.15650    1.000
    C33      C        0.61700    0.64160    0.19900    1.000
    H17      H        0.49440    0.63520    0.20080    1.000
    C34      C        0.74910    0.60932    0.22310    1.000
    C35      C        0.88800    0.73982    0.13880    1.000
    C36      C        0.04650    0.76561    0.15820    1.000
    H18      H        0.13210    0.75390    0.18960    1.000
    C37      C        0.08010    0.80849    0.13190    1.000
    C38      C        0.94690    0.82650    0.08540    1.000
    H19      H        0.96580    0.85560    0.06820    1.000
    C39      C        0.78550    0.80086    0.06460    1.000
    C40      C        0.76220    0.75780    0.09240    1.000
    H20      H        0.65670    0.74040    0.07910    1.000
    C41      C        0.24780    0.83654    0.15360    1.000
    C42      C        0.41620    0.81398    0.16830    1.000
    H21      H        0.41970    0.78120    0.16600    1.000
    C43      C        0.58150    0.83850    0.18660    1.000
    H22      H        0.69300    0.82250    0.19370    1.000
    C44      C        0.57370    0.88740    0.19380    1.000
    C45      C        0.40650    0.91142    0.18250    1.000
    C46      C        0.24700    0.88505    0.16190    1.000
    H23      H        0.13560    0.90100    0.15340    1.000
    C47      C        0.39160    0.96233    0.19130    1.000
    C48      C        0.64000    0.82040    0.01700    1.000
    C49      C        0.67730    0.84952    0.96980    1.000
    H24      H        0.79900    0.85680    0.96770    1.000
    C50      C        0.54280    0.86790    0.92660    1.000
    C51      C        0.36120    0.85640    0.92910    1.000
    C52      C        0.31660    0.82690    0.97490    1.000
    H25      H        0.19510    0.81940    0.97690    1.000
    C53      C        0.45490    0.80960    0.01590    1.000
    H26      H        0.42470    0.78920    0.04530    1.000
    C54      C        0.59150    0.89921    0.87820    1.000
    O10      O        0.70340    0.56872    0.24728    1.000
    O11      O        0.07540    0.55735    0.28464    1.000
    O12      O        0.23820    0.59121    0.22259    1.000
    O13      O        0.73660    0.91018    0.21230    1.000
    H27      H        0.71620    0.93760    0.22120    1.000
    O14      O        0.53890    0.98561    0.20930    1.000
    O15      O        0.23630    0.98133    0.18042    1.000
    O16      O        0.76180    0.90869    0.87870    1.000
    O17      O        0.46510    0.91591    0.84010    1.000
    O18      O        0.21560    0.87390    0.88850    1.000
    H28      H        0.25430    0.89210    0.86510    1.000
    Zn3      Zn       0.86270    0.54717    0.32581    1.000
    Zn4      Zn       0.44598    0.55087    0.25501    1.000
    C55      C        0.08960    0.91269    0.74460    1.000
    C56      C        0.93660    0.87941    0.72020    1.000
    C57      C        0.97900    0.83758    0.69300    1.000
    H29      H        0.10140    0.83080    0.69150    1.000
    C58      C        0.84580    0.80554    0.66810    1.000
    C59      C        0.66220    0.81697    0.67220    1.000
    H30      H        0.56940    0.79610    0.65650    1.000
    C60      C        0.61700    0.85840    0.69900    1.000
    H31      H        0.49440    0.86480    0.70080    1.000
    C61      C        0.74910    0.89068    0.72310    1.000
    C62      C        0.88800    0.76018    0.63880    1.000
    C63      C        0.04650    0.73439    0.65820    1.000
    H32      H        0.13210    0.74610    0.68960    1.000
    C64      C        0.08010    0.69151    0.63190    1.000
    C65      C        0.94690    0.67350    0.58540    1.000
    H33      H        0.96580    0.64440    0.56820    1.000
    C66      C        0.78550    0.69914    0.56460    1.000
    C67      C        0.76220    0.74220    0.59240    1.000
    H34      H        0.65670    0.75960    0.57910    1.000
    C68      C        0.24780    0.66346    0.65360    1.000
    C69      C        0.41620    0.68602    0.66830    1.000
    H35      H        0.41970    0.71880    0.66600    1.000
    C70      C        0.58150    0.66150    0.68660    1.000
    H36      H        0.69300    0.67750    0.69370    1.000
    C71      C        0.57370    0.61260    0.69380    1.000
    C72      C        0.40650    0.58858    0.68250    1.000
    C73      C        0.24700    0.61495    0.66190    1.000
    H37      H        0.13560    0.59900    0.65340    1.000
    C74      C        0.39160    0.53767    0.69130    1.000
    C75      C        0.64000    0.67960    0.51700    1.000
    C76      C        0.67730    0.65048    0.46980    1.000
    H38      H        0.79900    0.64320    0.46770    1.000
    C77      C        0.54280    0.63210    0.42660    1.000
    C78      C        0.36120    0.64360    0.42910    1.000
    C79      C        0.31660    0.67310    0.47490    1.000
    H39      H        0.19510    0.68060    0.47690    1.000
    C80      C        0.45490    0.69040    0.51590    1.000
    H40      H        0.42470    0.71080    0.54530    1.000
    C81      C        0.59150    0.60079    0.37820    1.000
    O19      O        0.70340    0.93128    0.74728    1.000
    O20      O        0.07540    0.94265    0.78464    1.000
    O21      O        0.23820    0.90879    0.72259    1.000
    O22      O        0.73660    0.58982    0.71230    1.000
    H41      H        0.71620    0.56240    0.72120    1.000
    O23      O        0.53890    0.51439    0.70930    1.000
    O24      O        0.23630    0.51867    0.68042    1.000
    O25      O        0.76180    0.59131    0.37870    1.000
    O26      O        0.46510    0.58409    0.34010    1.000
    O27      O        0.21560    0.62610    0.38850    1.000
    H42      H        0.25430    0.60790    0.36510    1.000
    Zn5      Zn       0.86270    0.95283    0.82581    1.000
    Zn6      Zn       0.44598    0.94913    0.75501    1.000
    C82      C        0.91040    0.41269    0.75540    1.000
    C83      C        0.06340    0.37941    0.77980    1.000
    C84      C        0.02100    0.33758    0.80700    1.000
    H43      H        0.89860    0.33080    0.80850    1.000
    C85      C        0.15420    0.30554    0.83190    1.000
    C86      C        0.33780    0.31697    0.82780    1.000
    H44      H        0.43060    0.29610    0.84350    1.000
    C87      C        0.38300    0.35840    0.80100    1.000
    H45      H        0.50560    0.36480    0.79920    1.000
    C88      C        0.25090    0.39068    0.77690    1.000
    C89      C        0.11200    0.26018    0.86120    1.000
    C90      C        0.95350    0.23439    0.84180    1.000
    H46      H        0.86790    0.24610    0.81040    1.000
    C91      C        0.91990    0.19151    0.86810    1.000
    C92      C        0.05310    0.17350    0.91460    1.000
    H47      H        0.03420    0.14440    0.93180    1.000
    C93      C        0.21450    0.19914    0.93540    1.000
    C94      C        0.23780    0.24220    0.90760    1.000
    H48      H        0.34330    0.25960    0.92090    1.000
    C95      C        0.75220    0.16346    0.84640    1.000
    C96      C        0.58380    0.18602    0.83170    1.000
    H49      H        0.58030    0.21880    0.83400    1.000
    C97      C        0.41850    0.16150    0.81340    1.000
    H50      H        0.30700    0.17750    0.80630    1.000
    C98      C        0.42630    0.11260    0.80620    1.000
    C99      C        0.59350    0.08858    0.81750    1.000
    C100     C        0.75300    0.11495    0.83810    1.000
    H51      H        0.86440    0.09900    0.84660    1.000
    C101     C        0.60840    0.03767    0.80870    1.000
    C102     C        0.36000    0.17960    0.98300    1.000
    C103     C        0.32270    0.15048    0.03020    1.000
    H52      H        0.20100    0.14320    0.03230    1.000
    C104     C        0.45720    0.13210    0.07340    1.000
    C105     C        0.63880    0.14360    0.07090    1.000
    C106     C        0.68340    0.17310    0.02510    1.000
    H53      H        0.80490    0.18060    0.02310    1.000
    C107     C        0.54510    0.19040    0.98410    1.000
    H54      H        0.57530    0.21080    0.95470    1.000
    C108     C        0.40850    0.10079    0.12180    1.000
    O28      O        0.29660    0.43128    0.75272    1.000
    O29      O        0.92460    0.44265    0.71536    1.000
    O30      O        0.76180    0.40879    0.77741    1.000
    O31      O        0.26340    0.08982    0.78770    1.000
    H55      H        0.28380    0.06240    0.77880    1.000
    O32      O        0.46110    0.01439    0.79070    1.000
    O33      O        0.76370    0.01867    0.81958    1.000
    O34      O        0.23820    0.09131    0.12130    1.000
    O35      O        0.53490    0.08409    0.15990    1.000
    O36      O        0.78440    0.12610    0.11150    1.000
    H56      H        0.74570    0.10790    0.13490    1.000
    Zn7      Zn       0.13730    0.45283    0.67419    1.000
    Zn8      Zn       0.55402    0.44913    0.74499    1.000
