# CIF file generated by openbabel 3.1.0, see https://openbabel.org
data_I
_chemical_name_common 'image0'
_cell_length_a 34.655
_cell_length_b 14.7307
_cell_length_c 31.081
_cell_angle_alpha 90
_cell_angle_beta 101.031
_cell_angle_gamma 90
_space_group_name_H-M_alt 'P 1'
_space_group_name_Hall 'P 1'
loop_
    _symmetry_equiv_pos_as_xyz
    x,y,z
loop_
    _atom_site_label
    _atom_site_type_symbol
    _atom_site_fract_x
    _atom_site_fract_y
    _atom_site_fract_z
    _atom_site_occupancy
    C1       C        0.88880    0.02520    0.84600    1.000
    H1       H        0.91270    0.05000    0.86170    1.000
    C2       C        0.86540    0.07760    0.81330    1.000
    H2       H        0.87130    0.13970    0.80960    1.000
    C3       C        0.83350    0.03710    0.78650    1.000
    C4       C        0.82400    0.94810    0.79540    1.000
    H3       H        0.80230    0.91810    0.77770    1.000
    C5       C        0.84680    0.90460    0.83050    1.000
    H4       H        0.83980    0.84470    0.83720    1.000
    C6       C        0.81030    0.08970    0.75030    1.000
    C7       C        0.76040    0.10010    0.69250    1.000
    C8       C        0.79680    0.22160    0.71430    1.000
    C9       C        0.78420    0.47410    0.69410    1.000
    H5       H        0.76530    0.51470    0.67840    1.000
    C10      C        0.77770    0.38110    0.68930    1.000
    H6       H        0.75520    0.35880    0.66980    1.000
    C11      C        0.80440    0.32170    0.71320    1.000
    C12      C        0.83850    0.35590    0.73970    1.000
    H7       H        0.85790    0.31630    0.75530    1.000
    C13      C        0.84310    0.45000    0.74250    1.000
    H8       H        0.86600    0.47410    0.76080    1.000
    C14      C        0.68560    0.92660    0.64380    1.000
    H9       H        0.67720    0.86840    0.65150    1.000
    C15      C        0.71480    0.96930    0.67120    1.000
    H10      H        0.72680    0.94020    0.69770    1.000
    C16      C        0.72760    0.05420    0.66170    1.000
    C17      C        0.70890    0.09420    0.62370    1.000
    H11      H        0.71610    0.15360    0.61640    1.000
    C18      C        0.68020    0.04940    0.59660    1.000
    H12      H        0.66800    0.07800    0.57000    1.000
    C19      C        0.56380    0.03380    0.51970    1.000
    H13      H        0.57490    0.02560    0.49430    1.000
    C20      C        0.53280    0.09330    0.51830    1.000
    H14      H        0.52340    0.12750    0.49250    1.000
    C21      C        0.51560    0.10270    0.55510    1.000
    C22      C        0.53250    0.05520    0.59390    1.000
    H15      H        0.52300    0.06350    0.62040    1.000
    C23      C        0.56290    0.99690    0.59190    1.000
    H16      H        0.57310    0.96170    0.61710    1.000
    C24      C        0.48250    0.16540    0.55590    1.000
    C25      C        0.44800    0.29040    0.53170    1.000
    C26      C        0.43270    0.20880    0.58760    1.000
    C27      C        0.40380    0.49970    0.47280    1.000
    H17      H        0.38060    0.53500    0.47100    1.000
    C28      C        0.40980    0.42570    0.50110    1.000
    H18      H        0.39150    0.41290    0.51950    1.000
    C29      C        0.44230    0.37100    0.50260    1.000
    C30      C        0.46880    0.39590    0.47730    1.000
    H19      H        0.49180    0.36040    0.47830    1.000
    C31      C        0.46310    0.46980    0.45090    1.000
    H20      H        0.48230    0.48540    0.43410    1.000
    C32      C        0.39650    0.12760    0.68660    1.000
    H21      H        0.40500    0.08960    0.71130    1.000
    C33      C        0.42070    0.14010    0.65690    1.000
    H22      H        0.44570    0.11140    0.66090    1.000
    C34      C        0.40760    0.19630    0.62040    1.000
    C35      C        0.37180    0.23740    0.61670    1.000
    H23      H        0.36240    0.27630    0.59260    1.000
    C36      C        0.34970    0.22230    0.64810    1.000
    H24      H        0.32520    0.25260    0.64530    1.000
    N1       N        0.87860    0.94250    0.85580    1.000
    N2       N        0.82070    0.17590    0.74610    1.000
    N3       N        0.76680    0.18690    0.68570    1.000
    N4       N        0.77940    0.04870    0.72480    1.000
    N5       N        0.81630    0.50820    0.72010    1.000
    N6       N        0.66790    0.96500    0.60560    1.000
    N7       N        0.57880    0.98680    0.55690    1.000
    N8       N        0.47710    0.23260    0.52620    1.000
    N9       N        0.42540    0.28280    0.56060    1.000
    N10      N        0.46120    0.14860    0.58670    1.000
    N11      N        0.43010    0.52250    0.44780    1.000
    N12      N        0.36060    0.16820    0.68170    1.000
    Zn1      Zn       0.91792    0.87200    0.90263    1.000
    Zn2      Zn       0.62530    0.89722    0.56223    1.000
    Zn3      Zn       0.32837    0.14613    0.73023    1.000
    I1       I        0.88062    0.75614    0.93859    1.000
    I2       I        0.97679    0.84585    0.86676    1.000
    I3       I        0.60666    0.75694    0.60005    1.000
    I4       I        0.64787    0.89708    0.48967    1.000
    I5       I        0.37241    0.15958    0.80549    1.000
    I6       I        0.26512    0.23637    0.70730    1.000
    Zn4      Zn       0.90930    0.87700    0.90970    1.000
    Zn5      Zn       0.63070    0.91480    0.54980    1.000
    Zn6      Zn       0.31770    0.14490    0.71810    1.000
    I7       I        0.86430    0.77280    0.94200    1.000
    I8       I        0.96930    0.83130    0.87700    1.000
    I9       I        0.62040    0.75790    0.57680    1.000
    I10      I        0.65450    0.92920    0.47770    1.000
    I11      I        0.35950    0.17010    0.79440    1.000
    I12      I        0.25340    0.22360    0.68930    1.000
    C37      C        0.62160    0.06800    0.42360    1.000
    H25      H        0.62790    0.00960    0.44000    1.000
    Cl1      Cl       0.63700    0.16000    0.45870    1.000
    Cl2      Cl       0.64440    0.06930    0.37820    1.000
    Cl3      Cl       0.57070    0.07700    0.40560    1.000
    C38      C        0.38880    0.52520    0.84600    1.000
    H26      H        0.41270    0.55000    0.86170    1.000
    C39      C        0.36540    0.57760    0.81330    1.000
    H27      H        0.37130    0.63970    0.80960    1.000
    C40      C        0.33350    0.53710    0.78650    1.000
    C41      C        0.32400    0.44810    0.79540    1.000
    H28      H        0.30230    0.41810    0.77770    1.000
    C42      C        0.34680    0.40460    0.83050    1.000
    H29      H        0.33980    0.34470    0.83720    1.000
    C43      C        0.31030    0.58970    0.75030    1.000
    C44      C        0.26040    0.60010    0.69250    1.000
    C45      C        0.29680    0.72160    0.71430    1.000
    C46      C        0.28420    0.97410    0.69410    1.000
    H30      H        0.26530    0.01470    0.67840    1.000
    C47      C        0.27770    0.88110    0.68930    1.000
    H31      H        0.25520    0.85880    0.66980    1.000
    C48      C        0.30440    0.82170    0.71320    1.000
    C49      C        0.33850    0.85590    0.73970    1.000
    H32      H        0.35790    0.81630    0.75530    1.000
    C50      C        0.34310    0.95000    0.74250    1.000
    H33      H        0.36600    0.97410    0.76080    1.000
    C51      C        0.18560    0.42660    0.64380    1.000
    H34      H        0.17720    0.36840    0.65150    1.000
    C52      C        0.21480    0.46930    0.67120    1.000
    H35      H        0.22680    0.44020    0.69770    1.000
    C53      C        0.22760    0.55420    0.66170    1.000
    C54      C        0.20890    0.59420    0.62370    1.000
    H36      H        0.21610    0.65360    0.61640    1.000
    C55      C        0.18020    0.54940    0.59660    1.000
    H37      H        0.16800    0.57800    0.57000    1.000
    C56      C        0.06380    0.53380    0.51970    1.000
    H38      H        0.07490    0.52560    0.49430    1.000
    C57      C        0.03280    0.59330    0.51830    1.000
    H39      H        0.02340    0.62750    0.49250    1.000
    C58      C        0.01560    0.60270    0.55510    1.000
    C59      C        0.03250    0.55520    0.59390    1.000
    H40      H        0.02300    0.56350    0.62040    1.000
    C60      C        0.06290    0.49690    0.59190    1.000
    H41      H        0.07310    0.46170    0.61710    1.000
    C61      C        0.98250    0.66540    0.55590    1.000
    C62      C        0.94800    0.79040    0.53170    1.000
    C63      C        0.93270    0.70880    0.58760    1.000
    C64      C        0.90380    0.99970    0.47280    1.000
    H42      H        0.88060    0.03500    0.47100    1.000
    C65      C        0.90980    0.92570    0.50110    1.000
    H43      H        0.89150    0.91290    0.51950    1.000
    C66      C        0.94230    0.87100    0.50260    1.000
    C67      C        0.96880    0.89590    0.47730    1.000
    H44      H        0.99180    0.86040    0.47830    1.000
    C68      C        0.96310    0.96980    0.45090    1.000
    H45      H        0.98230    0.98540    0.43410    1.000
    C69      C        0.89650    0.62760    0.68660    1.000
    H46      H        0.90500    0.58960    0.71130    1.000
    C70      C        0.92070    0.64010    0.65690    1.000
    H47      H        0.94570    0.61140    0.66090    1.000
    C71      C        0.90760    0.69630    0.62040    1.000
    C72      C        0.87180    0.73740    0.61670    1.000
    H48      H        0.86240    0.77630    0.59260    1.000
    C73      C        0.84970    0.72230    0.64810    1.000
    H49      H        0.82520    0.75260    0.64530    1.000
    N13      N        0.37860    0.44250    0.85580    1.000
    N14      N        0.32070    0.67590    0.74610    1.000
    N15      N        0.26680    0.68690    0.68570    1.000
    N16      N        0.27940    0.54870    0.72480    1.000
    N17      N        0.31630    0.00820    0.72010    1.000
    N18      N        0.16790    0.46500    0.60560    1.000
    N19      N        0.07880    0.48680    0.55690    1.000
    N20      N        0.97710    0.73260    0.52620    1.000
    N21      N        0.92540    0.78280    0.56060    1.000
    N22      N        0.96120    0.64860    0.58670    1.000
    N23      N        0.93010    0.02250    0.44780    1.000
    N24      N        0.86060    0.66820    0.68170    1.000
    Zn7      Zn       0.41792    0.37200    0.90263    1.000
    Zn8      Zn       0.12530    0.39722    0.56223    1.000
    Zn9      Zn       0.82837    0.64613    0.73023    1.000
    I13      I        0.38062    0.25614    0.93859    1.000
    I14      I        0.47679    0.34585    0.86676    1.000
    I15      I        0.10666    0.25694    0.60005    1.000
    I16      I        0.14787    0.39708    0.48967    1.000
    I17      I        0.87241    0.65958    0.80549    1.000
    I18      I        0.76512    0.73637    0.70730    1.000
    Zn10     Zn       0.40930    0.37700    0.90970    1.000
    Zn11     Zn       0.13070    0.41480    0.54980    1.000
    Zn12     Zn       0.81770    0.64490    0.71810    1.000
    I19      I        0.36430    0.27280    0.94200    1.000
    I20      I        0.46930    0.33130    0.87700    1.000
    I21      I        0.12040    0.25790    0.57680    1.000
    I22      I        0.15450    0.42920    0.47770    1.000
    I23      I        0.85950    0.67010    0.79440    1.000
    I24      I        0.75340    0.72360    0.68930    1.000
    C74      C        0.12160    0.56800    0.42360    1.000
    H50      H        0.12790    0.50960    0.44000    1.000
    Cl4      Cl       0.13700    0.66000    0.45870    1.000
    Cl5      Cl       0.14440    0.56930    0.37820    1.000
    Cl6      Cl       0.07070    0.57700    0.40560    1.000
    C75      C        0.88880    0.97480    0.34600    1.000
    H51      H        0.91270    0.95000    0.36170    1.000
    C76      C        0.86540    0.92240    0.31330    1.000
    H52      H        0.87130    0.86030    0.30960    1.000
    C77      C        0.83350    0.96290    0.28650    1.000
    C78      C        0.82400    0.05190    0.29540    1.000
    H53      H        0.80230    0.08190    0.27770    1.000
    C79      C        0.84680    0.09540    0.33050    1.000
    H54      H        0.83980    0.15530    0.33720    1.000
    C80      C        0.81030    0.91030    0.25030    1.000
    C81      C        0.76040    0.89990    0.19250    1.000
    C82      C        0.79680    0.77840    0.21430    1.000
    C83      C        0.78420    0.52590    0.19410    1.000
    H55      H        0.76530    0.48530    0.17840    1.000
    C84      C        0.77770    0.61890    0.18930    1.000
    H56      H        0.75520    0.64120    0.16980    1.000
    C85      C        0.80440    0.67830    0.21320    1.000
    C86      C        0.83850    0.64410    0.23970    1.000
    H57      H        0.85790    0.68370    0.25530    1.000
    C87      C        0.84310    0.55000    0.24250    1.000
    H58      H        0.86600    0.52590    0.26080    1.000
    C88      C        0.68560    0.07340    0.14380    1.000
    H59      H        0.67720    0.13160    0.15150    1.000
    C89      C        0.71480    0.03070    0.17120    1.000
    H60      H        0.72680    0.05980    0.19770    1.000
    C90      C        0.72760    0.94580    0.16170    1.000
    C91      C        0.70890    0.90580    0.12370    1.000
    H61      H        0.71610    0.84640    0.11640    1.000
    C92      C        0.68020    0.95060    0.09660    1.000
    H62      H        0.66800    0.92200    0.07000    1.000
    C93      C        0.56380    0.96620    0.01970    1.000
    H63      H        0.57490    0.97440    0.99430    1.000
    C94      C        0.53280    0.90670    0.01830    1.000
    H64      H        0.52340    0.87250    0.99250    1.000
    C95      C        0.51560    0.89730    0.05510    1.000
    C96      C        0.53250    0.94480    0.09390    1.000
    H65      H        0.52300    0.93650    0.12040    1.000
    C97      C        0.56290    0.00310    0.09190    1.000
    H66      H        0.57310    0.03830    0.11710    1.000
    C98      C        0.48250    0.83460    0.05590    1.000
    C99      C        0.44800    0.70960    0.03170    1.000
    C100     C        0.43270    0.79120    0.08760    1.000
    C101     C        0.40380    0.50030    0.97280    1.000
    H67      H        0.38060    0.46500    0.97100    1.000
    C102     C        0.40980    0.57430    0.00110    1.000
    H68      H        0.39150    0.58710    0.01950    1.000
    C103     C        0.44230    0.62900    0.00260    1.000
    C104     C        0.46880    0.60410    0.97730    1.000
    H69      H        0.49180    0.63960    0.97830    1.000
    C105     C        0.46310    0.53020    0.95090    1.000
    H70      H        0.48230    0.51460    0.93410    1.000
    C106     C        0.39650    0.87240    0.18660    1.000
    H71      H        0.40500    0.91040    0.21130    1.000
    C107     C        0.42070    0.85990    0.15690    1.000
    H72      H        0.44570    0.88860    0.16090    1.000
    C108     C        0.40760    0.80370    0.12040    1.000
    C109     C        0.37180    0.76260    0.11670    1.000
    H73      H        0.36240    0.72370    0.09260    1.000
    C110     C        0.34970    0.77770    0.14810    1.000
    H74      H        0.32520    0.74740    0.14530    1.000
    N25      N        0.87860    0.05750    0.35580    1.000
    N26      N        0.82070    0.82410    0.24610    1.000
    N27      N        0.76680    0.81310    0.18570    1.000
    N28      N        0.77940    0.95130    0.22480    1.000
    N29      N        0.81630    0.49180    0.22010    1.000
    N30      N        0.66790    0.03500    0.10560    1.000
    N31      N        0.57880    0.01320    0.05690    1.000
    N32      N        0.47710    0.76740    0.02620    1.000
    N33      N        0.42540    0.71720    0.06060    1.000
    N34      N        0.46120    0.85140    0.08670    1.000
    N35      N        0.43010    0.47750    0.94780    1.000
    N36      N        0.36060    0.83180    0.18170    1.000
    Zn13     Zn       0.91792    0.12800    0.40263    1.000
    Zn14     Zn       0.62530    0.10278    0.06223    1.000
    Zn15     Zn       0.32837    0.85387    0.23023    1.000
    I25      I        0.88062    0.24386    0.43859    1.000
    I26      I        0.97679    0.15415    0.36676    1.000
    I27      I        0.60666    0.24306    0.10005    1.000
    I28      I        0.64787    0.10292    0.98967    1.000
    I29      I        0.37241    0.84042    0.30549    1.000
    I30      I        0.26512    0.76363    0.20730    1.000
    Zn16     Zn       0.90930    0.12300    0.40970    1.000
    Zn17     Zn       0.63070    0.08520    0.04980    1.000
    Zn18     Zn       0.31770    0.85510    0.21810    1.000
    I31      I        0.86430    0.22720    0.44200    1.000
    I32      I        0.96930    0.16870    0.37700    1.000
    I33      I        0.62040    0.24210    0.07680    1.000
    I34      I        0.65450    0.07080    0.97770    1.000
    I35      I        0.35950    0.82990    0.29440    1.000
    I36      I        0.25340    0.77640    0.18930    1.000
    C111     C        0.62160    0.93200    0.92360    1.000
    H75      H        0.62790    0.99040    0.94000    1.000
    Cl7      Cl       0.63700    0.84000    0.95870    1.000
    Cl8      Cl       0.64440    0.93070    0.87820    1.000
    Cl9      Cl       0.57070    0.92300    0.90560    1.000
    C112     C        0.38880    0.47480    0.34600    1.000
    H76      H        0.41270    0.45000    0.36170    1.000
    C113     C        0.36540    0.42240    0.31330    1.000
    H77      H        0.37130    0.36030    0.30960    1.000
    C114     C        0.33350    0.46290    0.28650    1.000
    C115     C        0.32400    0.55190    0.29540    1.000
    H78      H        0.30230    0.58190    0.27770    1.000
    C116     C        0.34680    0.59540    0.33050    1.000
    H79      H        0.33980    0.65530    0.33720    1.000
    C117     C        0.31030    0.41030    0.25030    1.000
    C118     C        0.26040    0.39990    0.19250    1.000
    C119     C        0.29680    0.27840    0.21430    1.000
    C120     C        0.28420    0.02590    0.19410    1.000
    H80      H        0.26530    0.98530    0.17840    1.000
    C121     C        0.27770    0.11890    0.18930    1.000
    H81      H        0.25520    0.14120    0.16980    1.000
    C122     C        0.30440    0.17830    0.21320    1.000
    C123     C        0.33850    0.14410    0.23970    1.000
    H82      H        0.35790    0.18370    0.25530    1.000
    C124     C        0.34310    0.05000    0.24250    1.000
    H83      H        0.36600    0.02590    0.26080    1.000
    C125     C        0.18560    0.57340    0.14380    1.000
    H84      H        0.17720    0.63160    0.15150    1.000
    C126     C        0.21480    0.53070    0.17120    1.000
    H85      H        0.22680    0.55980    0.19770    1.000
    C127     C        0.22760    0.44580    0.16170    1.000
    C128     C        0.20890    0.40580    0.12370    1.000
    H86      H        0.21610    0.34640    0.11640    1.000
    C129     C        0.18020    0.45060    0.09660    1.000
    H87      H        0.16800    0.42200    0.07000    1.000
    C130     C        0.06380    0.46620    0.01970    1.000
    H88      H        0.07490    0.47440    0.99430    1.000
    C131     C        0.03280    0.40670    0.01830    1.000
    H89      H        0.02340    0.37250    0.99250    1.000
    C132     C        0.01560    0.39730    0.05510    1.000
    C133     C        0.03250    0.44480    0.09390    1.000
    H90      H        0.02300    0.43650    0.12040    1.000
    C134     C        0.06290    0.50310    0.09190    1.000
    H91      H        0.07310    0.53830    0.11710    1.000
    C135     C        0.98250    0.33460    0.05590    1.000
    C136     C        0.94800    0.20960    0.03170    1.000
    C137     C        0.93270    0.29120    0.08760    1.000
    C138     C        0.90380    0.00030    0.97280    1.000
    H92      H        0.88060    0.96500    0.97100    1.000
    C139     C        0.90980    0.07430    0.00110    1.000
    H93      H        0.89150    0.08710    0.01950    1.000
    C140     C        0.94230    0.12900    0.00260    1.000
    C141     C        0.96880    0.10410    0.97730    1.000
    H94      H        0.99180    0.13960    0.97830    1.000
    C142     C        0.96310    0.03020    0.95090    1.000
    H95      H        0.98230    0.01460    0.93410    1.000
    C143     C        0.89650    0.37240    0.18660    1.000
    H96      H        0.90500    0.41040    0.21130    1.000
    C144     C        0.92070    0.35990    0.15690    1.000
    H97      H        0.94570    0.38860    0.16090    1.000
    C145     C        0.90760    0.30370    0.12040    1.000
    C146     C        0.87180    0.26260    0.11670    1.000
    H98      H        0.86240    0.22370    0.09260    1.000
    C147     C        0.84970    0.27770    0.14810    1.000
    H99      H        0.82520    0.24740    0.14530    1.000
    N37      N        0.37860    0.55750    0.35580    1.000
    N38      N        0.32070    0.32410    0.24610    1.000
    N39      N        0.26680    0.31310    0.18570    1.000
    N40      N        0.27940    0.45130    0.22480    1.000
    N41      N        0.31630    0.99180    0.22010    1.000
    N42      N        0.16790    0.53500    0.10560    1.000
    N43      N        0.07880    0.51320    0.05690    1.000
    N44      N        0.97710    0.26740    0.02620    1.000
    N45      N        0.92540    0.21720    0.06060    1.000
    N46      N        0.96120    0.35140    0.08670    1.000
    N47      N        0.93010    0.97750    0.94780    1.000
    N48      N        0.86060    0.33180    0.18170    1.000
    Zn19     Zn       0.41792    0.62800    0.40263    1.000
    Zn20     Zn       0.12530    0.60278    0.06223    1.000
    Zn21     Zn       0.82837    0.35387    0.23023    1.000
    I37      I        0.38062    0.74386    0.43859    1.000
    I38      I        0.47679    0.65415    0.36676    1.000
    I39      I        0.10666    0.74306    0.10005    1.000
    I40      I        0.14787    0.60292    0.98967    1.000
    I41      I        0.87241    0.34042    0.30549    1.000
    I42      I        0.76512    0.26363    0.20730    1.000
    Zn22     Zn       0.40930    0.62300    0.40970    1.000
    Zn23     Zn       0.13070    0.58520    0.04980    1.000
    Zn24     Zn       0.81770    0.35510    0.21810    1.000
    I43      I        0.36430    0.72720    0.44200    1.000
    I44      I        0.46930    0.66870    0.37700    1.000
    I45      I        0.12040    0.74210    0.07680    1.000
    I46      I        0.15450    0.57080    0.97770    1.000
    I47      I        0.85950    0.32990    0.29440    1.000
    I48      I        0.75340    0.27640    0.18930    1.000
    C148     C        0.12160    0.43200    0.92360    1.000
    H100     H        0.12790    0.49040    0.94000    1.000
    Cl10     Cl       0.13700    0.34000    0.95870    1.000
    Cl11     Cl       0.14440    0.43070    0.87820    1.000
    Cl12     Cl       0.07070    0.42300    0.90560    1.000
    C149     C        0.11120    0.02520    0.65400    1.000
    H101     H        0.08730    0.05000    0.63830    1.000
    C150     C        0.13460    0.07760    0.68670    1.000
    H102     H        0.12870    0.13970    0.69040    1.000
    C151     C        0.16650    0.03710    0.71350    1.000
    C152     C        0.17600    0.94810    0.70460    1.000
    H103     H        0.19770    0.91810    0.72230    1.000
    C153     C        0.15320    0.90460    0.66950    1.000
    H104     H        0.16020    0.84470    0.66280    1.000
    C154     C        0.18970    0.08970    0.74970    1.000
    C155     C        0.23960    0.10010    0.80750    1.000
    C156     C        0.20320    0.22160    0.78570    1.000
    C157     C        0.21580    0.47410    0.80590    1.000
    H105     H        0.23470    0.51470    0.82160    1.000
    C158     C        0.22230    0.38110    0.81070    1.000
    H106     H        0.24480    0.35880    0.83020    1.000
    C159     C        0.19560    0.32170    0.78680    1.000
    C160     C        0.16150    0.35590    0.76030    1.000
    H107     H        0.14210    0.31630    0.74470    1.000
    C161     C        0.15690    0.45000    0.75750    1.000
    H108     H        0.13400    0.47410    0.73920    1.000
    C162     C        0.31440    0.92660    0.85620    1.000
    H109     H        0.32280    0.86840    0.84850    1.000
    C163     C        0.28520    0.96930    0.82880    1.000
    H110     H        0.27320    0.94020    0.80230    1.000
    C164     C        0.27240    0.05420    0.83830    1.000
    C165     C        0.29110    0.09420    0.87630    1.000
    H111     H        0.28390    0.15360    0.88360    1.000
    C166     C        0.31980    0.04940    0.90340    1.000
    H112     H        0.33200    0.07800    0.93000    1.000
    C167     C        0.43620    0.03380    0.98030    1.000
    H113     H        0.42510    0.02560    0.00570    1.000
    C168     C        0.46720    0.09330    0.98170    1.000
    H114     H        0.47660    0.12750    0.00750    1.000
    C169     C        0.48440    0.10270    0.94490    1.000
    C170     C        0.46750    0.05520    0.90610    1.000
    H115     H        0.47700    0.06350    0.87960    1.000
    C171     C        0.43710    0.99690    0.90810    1.000
    H116     H        0.42690    0.96170    0.88290    1.000
    C172     C        0.51750    0.16540    0.94410    1.000
    C173     C        0.55200    0.29040    0.96830    1.000
    C174     C        0.56730    0.20880    0.91240    1.000
    C175     C        0.59620    0.49970    0.02720    1.000
    H117     H        0.61940    0.53500    0.02900    1.000
    C176     C        0.59020    0.42570    0.99890    1.000
    H118     H        0.60850    0.41290    0.98050    1.000
    C177     C        0.55770    0.37100    0.99740    1.000
    C178     C        0.53120    0.39590    0.02270    1.000
    H119     H        0.50820    0.36040    0.02170    1.000
    C179     C        0.53690    0.46980    0.04910    1.000
    H120     H        0.51770    0.48540    0.06590    1.000
    C180     C        0.60350    0.12760    0.81340    1.000
    H121     H        0.59500    0.08960    0.78870    1.000
    C181     C        0.57930    0.14010    0.84310    1.000
    H122     H        0.55430    0.11140    0.83910    1.000
    C182     C        0.59240    0.19630    0.87960    1.000
    C183     C        0.62820    0.23740    0.88330    1.000
    H123     H        0.63760    0.27630    0.90740    1.000
    C184     C        0.65030    0.22230    0.85190    1.000
    H124     H        0.67480    0.25260    0.85470    1.000
    N49      N        0.12140    0.94250    0.64420    1.000
    N50      N        0.17930    0.17590    0.75390    1.000
    N51      N        0.23320    0.18690    0.81430    1.000
    N52      N        0.22060    0.04870    0.77520    1.000
    N53      N        0.18370    0.50820    0.77990    1.000
    N54      N        0.33210    0.96500    0.89440    1.000
    N55      N        0.42120    0.98680    0.94310    1.000
    N56      N        0.52290    0.23260    0.97380    1.000
    N57      N        0.57460    0.28280    0.93940    1.000
    N58      N        0.53880    0.14860    0.91330    1.000
    N59      N        0.56990    0.52250    0.05220    1.000
    N60      N        0.63940    0.16820    0.81830    1.000
    Zn25     Zn       0.08208    0.87200    0.59737    1.000
    Zn26     Zn       0.37470    0.89722    0.93777    1.000
    Zn27     Zn       0.67163    0.14613    0.76977    1.000
    I49      I        0.11938    0.75614    0.56141    1.000
    I50      I        0.02321    0.84585    0.63324    1.000
    I51      I        0.39334    0.75694    0.89995    1.000
    I52      I        0.35213    0.89708    0.01033    1.000
    I53      I        0.62759    0.15958    0.69451    1.000
    I54      I        0.73488    0.23637    0.79270    1.000
    Zn28     Zn       0.09070    0.87700    0.59030    1.000
    Zn29     Zn       0.36930    0.91480    0.95020    1.000
    Zn30     Zn       0.68230    0.14490    0.78190    1.000
    I55      I        0.13570    0.77280    0.55800    1.000
    I56      I        0.03070    0.83130    0.62300    1.000
    I57      I        0.37960    0.75790    0.92320    1.000
    I58      I        0.34550    0.92920    0.02230    1.000
    I59      I        0.64050    0.17010    0.70560    1.000
    I60      I        0.74660    0.22360    0.81070    1.000
    C185     C        0.37840    0.06800    0.07640    1.000
    H125     H        0.37210    0.00960    0.06000    1.000
    Cl13     Cl       0.36300    0.16000    0.04130    1.000
    Cl14     Cl       0.35560    0.06930    0.12180    1.000
    Cl15     Cl       0.42930    0.07700    0.09440    1.000
    C186     C        0.61120    0.52520    0.65400    1.000
    H126     H        0.58730    0.55000    0.63830    1.000
    C187     C        0.63460    0.57760    0.68670    1.000
    H127     H        0.62870    0.63970    0.69040    1.000
    C188     C        0.66650    0.53710    0.71350    1.000
    C189     C        0.67600    0.44810    0.70460    1.000
    H128     H        0.69770    0.41810    0.72230    1.000
    C190     C        0.65320    0.40460    0.66950    1.000
    H129     H        0.66020    0.34470    0.66280    1.000
    C191     C        0.68970    0.58970    0.74970    1.000
    C192     C        0.73960    0.60010    0.80750    1.000
    C193     C        0.70320    0.72160    0.78570    1.000
    C194     C        0.71580    0.97410    0.80590    1.000
    H130     H        0.73470    0.01470    0.82160    1.000
    C195     C        0.72230    0.88110    0.81070    1.000
    H131     H        0.74480    0.85880    0.83020    1.000
    C196     C        0.69560    0.82170    0.78680    1.000
    C197     C        0.66150    0.85590    0.76030    1.000
    H132     H        0.64210    0.81630    0.74470    1.000
    C198     C        0.65690    0.95000    0.75750    1.000
    H133     H        0.63400    0.97410    0.73920    1.000
    C199     C        0.81440    0.42660    0.85620    1.000
    H134     H        0.82280    0.36840    0.84850    1.000
    C200     C        0.78520    0.46930    0.82880    1.000
    H135     H        0.77320    0.44020    0.80230    1.000
    C201     C        0.77240    0.55420    0.83830    1.000
    C202     C        0.79110    0.59420    0.87630    1.000
    H136     H        0.78390    0.65360    0.88360    1.000
    C203     C        0.81980    0.54940    0.90340    1.000
    H137     H        0.83200    0.57800    0.93000    1.000
    C204     C        0.93620    0.53380    0.98030    1.000
    H138     H        0.92510    0.52560    0.00570    1.000
    C205     C        0.96720    0.59330    0.98170    1.000
    H139     H        0.97660    0.62750    0.00750    1.000
    C206     C        0.98440    0.60270    0.94490    1.000
    C207     C        0.96750    0.55520    0.90610    1.000
    H140     H        0.97700    0.56350    0.87960    1.000
    C208     C        0.93710    0.49690    0.90810    1.000
    H141     H        0.92690    0.46170    0.88290    1.000
    C209     C        0.01750    0.66540    0.94410    1.000
    C210     C        0.05200    0.79040    0.96830    1.000
    C211     C        0.06730    0.70880    0.91240    1.000
    C212     C        0.09620    0.99970    0.02720    1.000
    H142     H        0.11940    0.03500    0.02900    1.000
    C213     C        0.09020    0.92570    0.99890    1.000
    H143     H        0.10850    0.91290    0.98050    1.000
    C214     C        0.05770    0.87100    0.99740    1.000
    C215     C        0.03120    0.89590    0.02270    1.000
    H144     H        0.00820    0.86040    0.02170    1.000
    C216     C        0.03690    0.96980    0.04910    1.000
    H145     H        0.01770    0.98540    0.06590    1.000
    C217     C        0.10350    0.62760    0.81340    1.000
    H146     H        0.09500    0.58960    0.78870    1.000
    C218     C        0.07930    0.64010    0.84310    1.000
    H147     H        0.05430    0.61140    0.83910    1.000
    C219     C        0.09240    0.69630    0.87960    1.000
    C220     C        0.12820    0.73740    0.88330    1.000
    H148     H        0.13760    0.77630    0.90740    1.000
    C221     C        0.15030    0.72230    0.85190    1.000
    H149     H        0.17480    0.75260    0.85470    1.000
    N61      N        0.62140    0.44250    0.64420    1.000
    N62      N        0.67930    0.67590    0.75390    1.000
    N63      N        0.73320    0.68690    0.81430    1.000
    N64      N        0.72060    0.54870    0.77520    1.000
    N65      N        0.68370    0.00820    0.77990    1.000
    N66      N        0.83210    0.46500    0.89440    1.000
    N67      N        0.92120    0.48680    0.94310    1.000
    N68      N        0.02290    0.73260    0.97380    1.000
    N69      N        0.07460    0.78280    0.93940    1.000
    N70      N        0.03880    0.64860    0.91330    1.000
    N71      N        0.06990    0.02250    0.05220    1.000
    N72      N        0.13940    0.66820    0.81830    1.000
    Zn31     Zn       0.58208    0.37200    0.59737    1.000
    Zn32     Zn       0.87470    0.39722    0.93777    1.000
    Zn33     Zn       0.17163    0.64613    0.76977    1.000
    I61      I        0.61938    0.25614    0.56141    1.000
    I62      I        0.52321    0.34585    0.63324    1.000
    I63      I        0.89334    0.25694    0.89995    1.000
    I64      I        0.85213    0.39708    0.01033    1.000
    I65      I        0.12759    0.65958    0.69451    1.000
    I66      I        0.23488    0.73637    0.79270    1.000
    Zn34     Zn       0.59070    0.37700    0.59030    1.000
    Zn35     Zn       0.86930    0.41480    0.95020    1.000
    Zn36     Zn       0.18230    0.64490    0.78190    1.000
    I67      I        0.63570    0.27280    0.55800    1.000
    I68      I        0.53070    0.33130    0.62300    1.000
    I69      I        0.87960    0.25790    0.92320    1.000
    I70      I        0.84550    0.42920    0.02230    1.000
    I71      I        0.14050    0.67010    0.70560    1.000
    I72      I        0.24660    0.72360    0.81070    1.000
    C222     C        0.87840    0.56800    0.07640    1.000
    H150     H        0.87210    0.50960    0.06000    1.000
    Cl16     Cl       0.86300    0.66000    0.04130    1.000
    Cl17     Cl       0.85560    0.56930    0.12180    1.000
    Cl18     Cl       0.92930    0.57700    0.09440    1.000
    C223     C        0.11120    0.97480    0.15400    1.000
    H151     H        0.08730    0.95000    0.13830    1.000
    C224     C        0.13460    0.92240    0.18670    1.000
    H152     H        0.12870    0.86030    0.19040    1.000
    C225     C        0.16650    0.96290    0.21350    1.000
    C226     C        0.17600    0.05190    0.20460    1.000
    H153     H        0.19770    0.08190    0.22230    1.000
    C227     C        0.15320    0.09540    0.16950    1.000
    H154     H        0.16020    0.15530    0.16280    1.000
    C228     C        0.18970    0.91030    0.24970    1.000
    C229     C        0.23960    0.89990    0.30750    1.000
    C230     C        0.20320    0.77840    0.28570    1.000
    C231     C        0.21580    0.52590    0.30590    1.000
    H155     H        0.23470    0.48530    0.32160    1.000
    C232     C        0.22230    0.61890    0.31070    1.000
    H156     H        0.24480    0.64120    0.33020    1.000
    C233     C        0.19560    0.67830    0.28680    1.000
    C234     C        0.16150    0.64410    0.26030    1.000
    H157     H        0.14210    0.68370    0.24470    1.000
    C235     C        0.15690    0.55000    0.25750    1.000
    H158     H        0.13400    0.52590    0.23920    1.000
    C236     C        0.31440    0.07340    0.35620    1.000
    H159     H        0.32280    0.13160    0.34850    1.000
    C237     C        0.28520    0.03070    0.32880    1.000
    H160     H        0.27320    0.05980    0.30230    1.000
    C238     C        0.27240    0.94580    0.33830    1.000
    C239     C        0.29110    0.90580    0.37630    1.000
    H161     H        0.28390    0.84640    0.38360    1.000
    C240     C        0.31980    0.95060    0.40340    1.000
    H162     H        0.33200    0.92200    0.43000    1.000
    C241     C        0.43620    0.96620    0.48030    1.000
    H163     H        0.42510    0.97440    0.50570    1.000
    C242     C        0.46720    0.90670    0.48170    1.000
    H164     H        0.47660    0.87250    0.50750    1.000
    C243     C        0.48440    0.89730    0.44490    1.000
    C244     C        0.46750    0.94480    0.40610    1.000
    H165     H        0.47700    0.93650    0.37960    1.000
    C245     C        0.43710    0.00310    0.40810    1.000
    H166     H        0.42690    0.03830    0.38290    1.000
    C246     C        0.51750    0.83460    0.44410    1.000
    C247     C        0.55200    0.70960    0.46830    1.000
    C248     C        0.56730    0.79120    0.41240    1.000
    C249     C        0.59620    0.50030    0.52720    1.000
    H167     H        0.61940    0.46500    0.52900    1.000
    C250     C        0.59020    0.57430    0.49890    1.000
    H168     H        0.60850    0.58710    0.48050    1.000
    C251     C        0.55770    0.62900    0.49740    1.000
    C252     C        0.53120    0.60410    0.52270    1.000
    H169     H        0.50820    0.63960    0.52170    1.000
    C253     C        0.53690    0.53020    0.54910    1.000
    H170     H        0.51770    0.51460    0.56590    1.000
    C254     C        0.60350    0.87240    0.31340    1.000
    H171     H        0.59500    0.91040    0.28870    1.000
    C255     C        0.57930    0.85990    0.34310    1.000
    H172     H        0.55430    0.88860    0.33910    1.000
    C256     C        0.59240    0.80370    0.37960    1.000
    C257     C        0.62820    0.76260    0.38330    1.000
    H173     H        0.63760    0.72370    0.40740    1.000
    C258     C        0.65030    0.77770    0.35190    1.000
    H174     H        0.67480    0.74740    0.35470    1.000
    N73      N        0.12140    0.05750    0.14420    1.000
    N74      N        0.17930    0.82410    0.25390    1.000
    N75      N        0.23320    0.81310    0.31430    1.000
    N76      N        0.22060    0.95130    0.27520    1.000
    N77      N        0.18370    0.49180    0.27990    1.000
    N78      N        0.33210    0.03500    0.39440    1.000
    N79      N        0.42120    0.01320    0.44310    1.000
    N80      N        0.52290    0.76740    0.47380    1.000
    N81      N        0.57460    0.71720    0.43940    1.000
    N82      N        0.53880    0.85140    0.41330    1.000
    N83      N        0.56990    0.47750    0.55220    1.000
    N84      N        0.63940    0.83180    0.31830    1.000
    Zn37     Zn       0.08208    0.12800    0.09737    1.000
    Zn38     Zn       0.37470    0.10278    0.43777    1.000
    Zn39     Zn       0.67163    0.85387    0.26977    1.000
    I73      I        0.11938    0.24386    0.06141    1.000
    I74      I        0.02321    0.15415    0.13324    1.000
    I75      I        0.39334    0.24306    0.39995    1.000
    I76      I        0.35213    0.10292    0.51033    1.000
    I77      I        0.62759    0.84042    0.19451    1.000
    I78      I        0.73488    0.76363    0.29270    1.000
    Zn40     Zn       0.09070    0.12300    0.09030    1.000
    Zn41     Zn       0.36930    0.08520    0.45020    1.000
    Zn42     Zn       0.68230    0.85510    0.28190    1.000
    I79      I        0.13570    0.22720    0.05800    1.000
    I80      I        0.03070    0.16870    0.12300    1.000
    I81      I        0.37960    0.24210    0.42320    1.000
    I82      I        0.34550    0.07080    0.52230    1.000
    I83      I        0.64050    0.82990    0.20560    1.000
    I84      I        0.74660    0.77640    0.31070    1.000
    C259     C        0.37840    0.93200    0.57640    1.000
    H175     H        0.37210    0.99040    0.56000    1.000
    Cl19     Cl       0.36300    0.84000    0.54130    1.000
    Cl20     Cl       0.35560    0.93070    0.62180    1.000
    Cl21     Cl       0.42930    0.92300    0.59440    1.000
    C260     C        0.61120    0.47480    0.15400    1.000
    H176     H        0.58730    0.45000    0.13830    1.000
    C261     C        0.63460    0.42240    0.18670    1.000
    H177     H        0.62870    0.36030    0.19040    1.000
    C262     C        0.66650    0.46290    0.21350    1.000
    C263     C        0.67600    0.55190    0.20460    1.000
    H178     H        0.69770    0.58190    0.22230    1.000
    C264     C        0.65320    0.59540    0.16950    1.000
    H179     H        0.66020    0.65530    0.16280    1.000
    C265     C        0.68970    0.41030    0.24970    1.000
    C266     C        0.73960    0.39990    0.30750    1.000
    C267     C        0.70320    0.27840    0.28570    1.000
    C268     C        0.71580    0.02590    0.30590    1.000
    H180     H        0.73470    0.98530    0.32160    1.000
    C269     C        0.72230    0.11890    0.31070    1.000
    H181     H        0.74480    0.14120    0.33020    1.000
    C270     C        0.69560    0.17830    0.28680    1.000
    C271     C        0.66150    0.14410    0.26030    1.000
    H182     H        0.64210    0.18370    0.24470    1.000
    C272     C        0.65690    0.05000    0.25750    1.000
    H183     H        0.63400    0.02590    0.23920    1.000
    C273     C        0.81440    0.57340    0.35620    1.000
    H184     H        0.82280    0.63160    0.34850    1.000
    C274     C        0.78520    0.53070    0.32880    1.000
    H185     H        0.77320    0.55980    0.30230    1.000
    C275     C        0.77240    0.44580    0.33830    1.000
    C276     C        0.79110    0.40580    0.37630    1.000
    H186     H        0.78390    0.34640    0.38360    1.000
    C277     C        0.81980    0.45060    0.40340    1.000
    H187     H        0.83200    0.42200    0.43000    1.000
    C278     C        0.93620    0.46620    0.48030    1.000
    H188     H        0.92510    0.47440    0.50570    1.000
    C279     C        0.96720    0.40670    0.48170    1.000
    H189     H        0.97660    0.37250    0.50750    1.000
    C280     C        0.98440    0.39730    0.44490    1.000
    C281     C        0.96750    0.44480    0.40610    1.000
    H190     H        0.97700    0.43650    0.37960    1.000
    C282     C        0.93710    0.50310    0.40810    1.000
    H191     H        0.92690    0.53830    0.38290    1.000
    C283     C        0.01750    0.33460    0.44410    1.000
    C284     C        0.05200    0.20960    0.46830    1.000
    C285     C        0.06730    0.29120    0.41240    1.000
    C286     C        0.09620    0.00030    0.52720    1.000
    H192     H        0.11940    0.96500    0.52900    1.000
    C287     C        0.09020    0.07430    0.49890    1.000
    H193     H        0.10850    0.08710    0.48050    1.000
    C288     C        0.05770    0.12900    0.49740    1.000
    C289     C        0.03120    0.10410    0.52270    1.000
    H194     H        0.00820    0.13960    0.52170    1.000
    C290     C        0.03690    0.03020    0.54910    1.000
    H195     H        0.01770    0.01460    0.56590    1.000
    C291     C        0.10350    0.37240    0.31340    1.000
    H196     H        0.09500    0.41040    0.28870    1.000
    C292     C        0.07930    0.35990    0.34310    1.000
    H197     H        0.05430    0.38860    0.33910    1.000
    C293     C        0.09240    0.30370    0.37960    1.000
    C294     C        0.12820    0.26260    0.38330    1.000
    H198     H        0.13760    0.22370    0.40740    1.000
    C295     C        0.15030    0.27770    0.35190    1.000
    H199     H        0.17480    0.24740    0.35470    1.000
    N85      N        0.62140    0.55750    0.14420    1.000
    N86      N        0.67930    0.32410    0.25390    1.000
    N87      N        0.73320    0.31310    0.31430    1.000
    N88      N        0.72060    0.45130    0.27520    1.000
    N89      N        0.68370    0.99180    0.27990    1.000
    N90      N        0.83210    0.53500    0.39440    1.000
    N91      N        0.92120    0.51320    0.44310    1.000
    N92      N        0.02290    0.26740    0.47380    1.000
    N93      N        0.07460    0.21720    0.43940    1.000
    N94      N        0.03880    0.35140    0.41330    1.000
    N95      N        0.06990    0.97750    0.55220    1.000
    N96      N        0.13940    0.33180    0.31830    1.000
    Zn43     Zn       0.58208    0.62800    0.09737    1.000
    Zn44     Zn       0.87470    0.60278    0.43777    1.000
    Zn45     Zn       0.17163    0.35387    0.26977    1.000
    I85      I        0.61938    0.74386    0.06141    1.000
    I86      I        0.52321    0.65415    0.13324    1.000
    I87      I        0.89334    0.74306    0.39995    1.000
    I88      I        0.85213    0.60292    0.51033    1.000
    I89      I        0.12759    0.34042    0.19451    1.000
    I90      I        0.23488    0.26363    0.29270    1.000
    Zn46     Zn       0.59070    0.62300    0.09030    1.000
    Zn47     Zn       0.86930    0.58520    0.45020    1.000
    Zn48     Zn       0.18230    0.35510    0.28190    1.000
    I91      I        0.63570    0.72720    0.05800    1.000
    I92      I        0.53070    0.66870    0.12300    1.000
    I93      I        0.87960    0.74210    0.42320    1.000
    I94      I        0.84550    0.57080    0.52230    1.000
    I95      I        0.14050    0.32990    0.20560    1.000
    I96      I        0.24660    0.27640    0.31070    1.000
    C296     C        0.87840    0.43200    0.57640    1.000
    H200     H        0.87210    0.49040    0.56000    1.000
    Cl22     Cl       0.86300    0.34000    0.54130    1.000
    Cl23     Cl       0.85560    0.43070    0.62180    1.000
    Cl24     Cl       0.92930    0.42300    0.59440    1.000
