# CIF file generated by openbabel 3.1.0, see https://openbabel.org
data_I
_chemical_name_common 'LIWXIZ_clean'
_cell_length_a 4.789
_cell_length_b 11.771
_cell_length_c 26.329
_cell_angle_alpha 96.822
_cell_angle_beta 90
_cell_angle_gamma 90
_space_group_name_H-M_alt 'P 1'
_space_group_name_Hall 'P 1'
loop_
    _symmetry_equiv_pos_as_xyz
    x,y,z
loop_
    _atom_site_label
    _atom_site_type_symbol
    _atom_site_fract_x
    _atom_site_fract_y
    _atom_site_fract_z
    _atom_site_occupancy
    Zn1      Zn       0.29553    0.09541    0.55064    1.000
    Zn2      Zn       0.27738    0.82415    0.97052    1.000
    Zn3      Zn       0.79553    0.90459    0.44936    1.000
    Zn4      Zn       0.77738    0.17585    0.02948    1.000
    H1       H        0.78980    0.25670    0.42050    1.000
    H2       H        0.90020    0.28710    0.33750    1.000
    H3       H        0.36110    0.04230    0.28340    1.000
    H4       H        0.77120    0.95810    0.23210    1.000
    H5       H        0.63040    0.83380    0.16370    1.000
    H6       H        0.46540    0.21820    0.16370    1.000
    H7       H        0.33190    0.23950    0.65670    1.000
    H8       H        0.81860    0.29020    0.54650    1.000
    H9       H        0.76420    0.44970    0.61380    1.000
    H10      H        0.12040    0.52340    0.69400    1.000
    H11      H        0.30190    0.42680    0.71360    1.000
    H12      H        0.88820    0.25800    0.73430    1.000
    H13      H        0.59070    0.24210    0.80120    1.000
    H14      H        0.53830    0.58210    0.82770    1.000
    H15      H        0.84060    0.59780    0.76050    1.000
    H16      H        0.14410    0.40160    0.85370    1.000
    H17      H        0.36290    0.32470    0.87790    1.000
    H18      H        0.08730    0.60950    0.89700    1.000
    H19      H        0.69020    0.62030    0.99840    1.000
    H20      H        0.71330    0.43320    0.94720    1.000
    H21      H        0.28980    0.74330    0.57950    1.000
    H22      H        0.40020    0.71290    0.66250    1.000
    H23      H        0.86110    0.95770    0.71660    1.000
    H24      H        0.27120    0.04190    0.76790    1.000
    H25      H        0.13040    0.16620    0.83630    1.000
    H26      H        0.96540    0.78180    0.83630    1.000
    H27      H        0.83190    0.76050    0.34330    1.000
    H28      H        0.31860    0.70980    0.45350    1.000
    H29      H        0.26420    0.55030    0.38620    1.000
    H30      H        0.62040    0.47660    0.30600    1.000
    H31      H        0.80190    0.57320    0.28640    1.000
    H32      H        0.38820    0.74200    0.26570    1.000
    H33      H        0.09070    0.75790    0.19880    1.000
    H34      H        0.03830    0.41790    0.17230    1.000
    H35      H        0.34060    0.40220    0.23950    1.000
    H36      H        0.64410    0.59840    0.14630    1.000
    H37      H        0.86290    0.67530    0.12210    1.000
    H38      H        0.58730    0.39050    0.10300    1.000
    H39      H        0.19020    0.37970    0.00160    1.000
    H40      H        0.21330    0.56680    0.05280    1.000
    C1       C        0.44500    0.11630    0.45674    1.000
    C2       C        0.50590    0.13110    0.40192    1.000
    C3       C        0.70320    0.21350    0.39305    1.000
    C4       C        0.77080    0.23110    0.34332    1.000
    C5       C        0.64540    0.16530    0.30199    1.000
    C6       C        0.44770    0.08500    0.31101    1.000
    C7       C        0.37440    0.06630    0.36086    1.000
    C8       C        0.15730    0.97900    0.36766    1.000
    C9       C        0.71450    0.18840    0.24894    1.000
    C10      C        0.62980    0.10200    0.20527    1.000
    C11      C        0.68090    0.98540    0.20476    1.000
    C12      C        0.59680    0.91160    0.16358    1.000
    C13      C        0.46400    0.94800    0.12182    1.000
    C14      C        0.41010    0.06570    0.12245    1.000
    C15      C        0.49680    0.14020    0.16372    1.000
    C16      C        0.25470    0.11390    0.08033    1.000
    C17      C        0.38690    0.86360    0.07667    1.000
    C18      C        0.19830    0.27230    0.63738    1.000
    C19      C        0.91650    0.29980    0.57720    1.000
    C20      C        0.88650    0.38850    0.61420    1.000
    C21      C        0.11910    0.44410    0.70059    1.000
    C22      C        0.90400    0.42970    0.74101    1.000
    C23      C        0.82100    0.32390    0.75337    1.000
    C24      C        0.64100    0.31430    0.79333    1.000
    C25      C        0.53370    0.41060    0.82195    1.000
    C26      C        0.60980    0.51630    0.80919    1.000
    C27      C        0.79270    0.52570    0.76885    1.000
    C28      C        0.33480    0.39860    0.86582    1.000
    C29      C        0.24000    0.58980    0.91589    1.000
    C30      C        0.57180    0.59470    0.97148    1.000
    C31      C        0.58590    0.49120    0.94336    1.000
    C32      C        0.94500    0.88370    0.54326    1.000
    C33      C        0.00590    0.86890    0.59808    1.000
    C34      C        0.20320    0.78650    0.60695    1.000
    C35      C        0.27080    0.76890    0.65668    1.000
    C36      C        0.14540    0.83470    0.69801    1.000
    C37      C        0.94770    0.91500    0.68899    1.000
    C38      C        0.87440    0.93370    0.63914    1.000
    C39      C        0.65730    0.02100    0.63234    1.000
    C40      C        0.21450    0.81160    0.75106    1.000
    C41      C        0.12980    0.89800    0.79473    1.000
    C42      C        0.18090    0.01460    0.79524    1.000
    C43      C        0.09680    0.08840    0.83642    1.000
    C44      C        0.96400    0.05200    0.87818    1.000
    C45      C        0.91010    0.93430    0.87755    1.000
    C46      C        0.99680    0.85980    0.83628    1.000
    C47      C        0.75470    0.88610    0.91967    1.000
    C48      C        0.88690    0.13640    0.92333    1.000
    C49      C        0.69830    0.72770    0.36262    1.000
    C50      C        0.41650    0.70020    0.42280    1.000
    C51      C        0.38650    0.61150    0.38580    1.000
    C52      C        0.61910    0.55590    0.29941    1.000
    C53      C        0.40400    0.57030    0.25899    1.000
    C54      C        0.32100    0.67610    0.24663    1.000
    C55      C        0.14100    0.68570    0.20667    1.000
    C56      C        0.03370    0.58940    0.17805    1.000
    C57      C        0.10980    0.48370    0.19081    1.000
    C58      C        0.29270    0.47430    0.23115    1.000
    C59      C        0.83480    0.60140    0.13418    1.000
    C60      C        0.74000    0.41020    0.08411    1.000
    C61      C        0.07180    0.40530    0.02852    1.000
    C62      C        0.08590    0.50880    0.05664    1.000
    N1       N        0.11300    0.22610    0.59188    1.000
    N2       N        0.07080    0.37130    0.65241    1.000
    N3       N        0.37670    0.48860    0.90814    1.000
    N4       N        0.35420    0.65640    0.95407    1.000
    N5       N        0.61300    0.77390    0.40812    1.000
    N6       N        0.57080    0.62870    0.34759    1.000
    N7       N        0.87670    0.51140    0.09186    1.000
    N8       N        0.85420    0.34360    0.04593    1.000
    O1       O        0.30490    0.18690    0.48452    1.000
    O2       O        0.55670    0.03540    0.47638    1.000
    O3       O        0.08460    0.97480    0.41411    1.000
    O4       O        0.06400    0.91750    0.33056    1.000
    O5       O        0.83000    0.27670    0.24151    1.000
    O6       O        0.99190    0.10400    0.08094    1.000
    O7       O        0.38070    0.17000    0.04997    1.000
    O8       O        0.38160    0.76140    0.08066    1.000
    O9       O        0.33880    0.90840    0.03598    1.000
    O10      O        0.80490    0.81310    0.51548    1.000
    O11      O        0.05670    0.96460    0.52362    1.000
    O12      O        0.58460    0.02520    0.58589    1.000
    O13      O        0.56400    0.08250    0.66944    1.000
    O14      O        0.33000    0.72330    0.75849    1.000
    O15      O        0.49190    0.89600    0.91906    1.000
    O16      O        0.88070    0.83000    0.95003    1.000
    O17      O        0.88160    0.23860    0.91934    1.000
    O18      O        0.83880    0.09160    0.96402    1.000
