# CIF file generated by openbabel 3.1.0, see https://openbabel.org
data_I
_chemical_name_common 'image0'
_cell_length_a 24.7233
_cell_length_b 24.7233
_cell_length_c 24.7233
_cell_angle_alpha 90
_cell_angle_beta 90
_cell_angle_gamma 90
_space_group_name_H-M_alt 'P 1'
_space_group_name_Hall 'P 1'
loop_
    _symmetry_equiv_pos_as_xyz
    x,y,z
loop_
    _atom_site_label
    _atom_site_type_symbol
    _atom_site_fract_x
    _atom_site_fract_y
    _atom_site_fract_z
    _atom_site_occupancy
    N1       N        0.77097    0.93643    0.08907    1.000
    C1       C        0.78235    0.90698    0.13235    1.000
    H1       H        0.81010    0.91550    0.15750    1.000
    N2       N        0.77097    0.43643    0.58907    1.000
    C2       C        0.78235    0.40698    0.63235    1.000
    H2       H        0.81010    0.41550    0.65750    1.000
    N3       N        0.27097    0.93643    0.58907    1.000
    C3       C        0.28235    0.90698    0.63235    1.000
    H3       H        0.31010    0.91550    0.65750    1.000
    N4       N        0.27097    0.43643    0.08907    1.000
    C4       C        0.28235    0.40698    0.13235    1.000
    H4       H        0.31010    0.41550    0.15750    1.000
    N5       N        0.47903    0.81357    0.58907    1.000
    C5       C        0.46765    0.84302    0.63235    1.000
    H5       H        0.43990    0.83450    0.65750    1.000
    N6       N        0.47903    0.31357    0.08907    1.000
    C6       C        0.46765    0.34302    0.13235    1.000
    H6       H        0.43990    0.33450    0.15750    1.000
    N7       N        0.97903    0.81357    0.08907    1.000
    C7       C        0.96765    0.84302    0.13235    1.000
    H7       H        0.93990    0.83450    0.15750    1.000
    N8       N        0.97903    0.31357    0.58907    1.000
    C8       C        0.96765    0.34302    0.63235    1.000
    H8       H        0.93990    0.33450    0.65750    1.000
    N9       N        0.97903    0.43643    0.16093    1.000
    C9       C        0.96765    0.40698    0.11765    1.000
    H9       H        0.93990    0.41550    0.09250    1.000
    N10      N        0.97903    0.93643    0.66093    1.000
    C10      C        0.96765    0.90698    0.61765    1.000
    H10      H        0.93990    0.91550    0.59250    1.000
    N11      N        0.47903    0.43643    0.66093    1.000
    C11      C        0.46765    0.40698    0.61765    1.000
    H11      H        0.43990    0.41550    0.59250    1.000
    N12      N        0.47903    0.93643    0.16093    1.000
    C12      C        0.46765    0.90698    0.11765    1.000
    H12      H        0.43990    0.91550    0.09250    1.000
    N13      N        0.27097    0.31357    0.66093    1.000
    C13      C        0.28235    0.34302    0.61765    1.000
    H13      H        0.31010    0.33450    0.59250    1.000
    N14      N        0.27097    0.81357    0.16093    1.000
    C14      C        0.28235    0.84302    0.11765    1.000
    H14      H        0.31010    0.83450    0.09250    1.000
    N15      N        0.77097    0.31357    0.16093    1.000
    C15      C        0.78235    0.34302    0.11765    1.000
    H15      H        0.81010    0.33450    0.09250    1.000
    N16      N        0.77097    0.81357    0.66093    1.000
    C16      C        0.78235    0.84302    0.61765    1.000
    H16      H        0.81010    0.83450    0.59250    1.000
    N17      N        0.08907    0.77097    0.93643    1.000
    C17      C        0.13235    0.78235    0.90698    1.000
    H17      H        0.15750    0.81010    0.91550    1.000
    N18      N        0.08907    0.27097    0.43643    1.000
    C18      C        0.13235    0.28235    0.40698    1.000
    H18      H        0.15750    0.31010    0.41550    1.000
    N19      N        0.58907    0.77097    0.43643    1.000
    C19      C        0.63235    0.78235    0.40698    1.000
    H19      H        0.65750    0.81010    0.41550    1.000
    N20      N        0.58907    0.27097    0.93643    1.000
    C20      C        0.63235    0.28235    0.90698    1.000
    H20      H        0.65750    0.31010    0.91550    1.000
    N21      N        0.58907    0.47903    0.81357    1.000
    C21      C        0.63235    0.46765    0.84302    1.000
    H21      H        0.65750    0.43990    0.83450    1.000
    N22      N        0.58907    0.97903    0.31357    1.000
    C22      C        0.63235    0.96765    0.34302    1.000
    H22      H        0.65750    0.93990    0.33450    1.000
    N23      N        0.08907    0.47903    0.31357    1.000
    C23      C        0.13235    0.46765    0.34302    1.000
    H23      H        0.15750    0.43990    0.33450    1.000
    N24      N        0.08907    0.97903    0.81357    1.000
    C24      C        0.13235    0.96765    0.84302    1.000
    H24      H        0.15750    0.93990    0.83450    1.000
    N25      N        0.16093    0.97903    0.43643    1.000
    C25      C        0.11765    0.96765    0.40698    1.000
    H25      H        0.09250    0.93990    0.41550    1.000
    N26      N        0.16093    0.47903    0.93643    1.000
    C26      C        0.11765    0.46765    0.90698    1.000
    H26      H        0.09250    0.43990    0.91550    1.000
    N27      N        0.66093    0.97903    0.93643    1.000
    C27      C        0.61765    0.96765    0.90698    1.000
    H27      H        0.59250    0.93990    0.91550    1.000
    N28      N        0.66093    0.47903    0.43643    1.000
    C28      C        0.61765    0.46765    0.40698    1.000
    H28      H        0.59250    0.43990    0.41550    1.000
    N29      N        0.66093    0.27097    0.31357    1.000
    C29      C        0.61765    0.28235    0.34302    1.000
    H29      H        0.59250    0.31010    0.33450    1.000
    N30      N        0.66093    0.77097    0.81357    1.000
    C30      C        0.61765    0.78235    0.84302    1.000
    H30      H        0.59250    0.81010    0.83450    1.000
    N31      N        0.16093    0.27097    0.81357    1.000
    C31      C        0.11765    0.28235    0.84302    1.000
    H31      H        0.09250    0.31010    0.83450    1.000
    N32      N        0.16093    0.77097    0.31357    1.000
    C32      C        0.11765    0.78235    0.34302    1.000
    H32      H        0.09250    0.81010    0.33450    1.000
    N33      N        0.93643    0.08907    0.77097    1.000
    C33      C        0.90698    0.13235    0.78235    1.000
    H33      H        0.91550    0.15750    0.81010    1.000
    N34      N        0.93643    0.58907    0.27097    1.000
    C34      C        0.90698    0.63235    0.28235    1.000
    H34      H        0.91550    0.65750    0.31010    1.000
    N35      N        0.43643    0.08907    0.27097    1.000
    C35      C        0.40698    0.13235    0.28235    1.000
    H35      H        0.41550    0.15750    0.31010    1.000
    N36      N        0.43643    0.58907    0.77097    1.000
    C36      C        0.40698    0.63235    0.78235    1.000
    H36      H        0.41550    0.65750    0.81010    1.000
    N37      N        0.81357    0.58907    0.47903    1.000
    C37      C        0.84302    0.63235    0.46765    1.000
    H37      H        0.83450    0.65750    0.43990    1.000
    N38      N        0.81357    0.08907    0.97903    1.000
    C38      C        0.84302    0.13235    0.96765    1.000
    H38      H        0.83450    0.15750    0.93990    1.000
    N39      N        0.31357    0.58907    0.97903    1.000
    C39      C        0.34302    0.63235    0.96765    1.000
    H39      H        0.33450    0.65750    0.93990    1.000
    N40      N        0.31357    0.08907    0.47903    1.000
    C40      C        0.34302    0.13235    0.46765    1.000
    H40      H        0.33450    0.15750    0.43990    1.000
    N41      N        0.43643    0.16093    0.97903    1.000
    C41      C        0.40698    0.11765    0.96765    1.000
    H41      H        0.41550    0.09250    0.93990    1.000
    N42      N        0.43643    0.66093    0.47903    1.000
    C42      C        0.40698    0.61765    0.46765    1.000
    H42      H        0.41550    0.59250    0.43990    1.000
    N43      N        0.93643    0.16093    0.47903    1.000
    C43      C        0.90698    0.11765    0.46765    1.000
    H43      H        0.91550    0.09250    0.43990    1.000
    N44      N        0.93643    0.66093    0.97903    1.000
    C44      C        0.90698    0.61765    0.96765    1.000
    H44      H        0.91550    0.59250    0.93990    1.000
    N45      N        0.31357    0.66093    0.27097    1.000
    C45      C        0.34302    0.61765    0.28235    1.000
    H45      H        0.33450    0.59250    0.31010    1.000
    N46      N        0.31357    0.16093    0.77097    1.000
    C46      C        0.34302    0.11765    0.78235    1.000
    H46      H        0.33450    0.09250    0.81010    1.000
    N47      N        0.81357    0.66093    0.77097    1.000
    C47      C        0.84302    0.61765    0.78235    1.000
    H47      H        0.83450    0.59250    0.81010    1.000
    N48      N        0.81357    0.16093    0.27097    1.000
    C48      C        0.84302    0.11765    0.28235    1.000
    H48      H        0.83450    0.09250    0.31010    1.000
    N49      N        0.68643    0.02097    0.91093    1.000
    C49      C        0.65698    0.03235    0.86765    1.000
    H49      H        0.66550    0.06010    0.84250    1.000
    N50      N        0.68643    0.52097    0.41093    1.000
    C50      C        0.65698    0.53235    0.36765    1.000
    H50      H        0.66550    0.56010    0.34250    1.000
    N51      N        0.18643    0.02097    0.41093    1.000
    C51      C        0.15698    0.03235    0.36765    1.000
    H51      H        0.16550    0.06010    0.34250    1.000
    N52      N        0.18643    0.52097    0.91093    1.000
    C52      C        0.15698    0.53235    0.86765    1.000
    H52      H        0.16550    0.56010    0.84250    1.000
    N53      N        0.56357    0.72903    0.41093    1.000
    C53      C        0.59302    0.71765    0.36765    1.000
    H53      H        0.58450    0.68990    0.34250    1.000
    N54      N        0.56357    0.22903    0.91093    1.000
    C54      C        0.59302    0.21765    0.86765    1.000
    H54      H        0.58450    0.18990    0.84250    1.000
    N55      N        0.06357    0.72903    0.91093    1.000
    C55      C        0.09302    0.71765    0.86765    1.000
    H55      H        0.08450    0.68990    0.84250    1.000
    N56      N        0.06357    0.22903    0.41093    1.000
    C56      C        0.09302    0.21765    0.36765    1.000
    H56      H        0.08450    0.18990    0.34250    1.000
    N57      N        0.18643    0.22903    0.83907    1.000
    C57      C        0.15698    0.21765    0.88235    1.000
    H57      H        0.16550    0.18990    0.90750    1.000
    N58      N        0.18643    0.72903    0.33907    1.000
    C58      C        0.15698    0.71765    0.38235    1.000
    H58      H        0.16550    0.68990    0.40750    1.000
    N59      N        0.68643    0.22903    0.33907    1.000
    C59      C        0.65698    0.21765    0.38235    1.000
    H59      H        0.66550    0.18990    0.40750    1.000
    N60      N        0.68643    0.72903    0.83907    1.000
    C60      C        0.65698    0.71765    0.88235    1.000
    H60      H        0.66550    0.68990    0.90750    1.000
    N61      N        0.06357    0.52097    0.33907    1.000
    C61      C        0.09302    0.53235    0.38235    1.000
    H61      H        0.08450    0.56010    0.40750    1.000
    N62      N        0.06357    0.02097    0.83907    1.000
    C62      C        0.09302    0.03235    0.88235    1.000
    H62      H        0.08450    0.06010    0.90750    1.000
    N63      N        0.56357    0.52097    0.83907    1.000
    C63      C        0.59302    0.53235    0.88235    1.000
    H63      H        0.58450    0.56010    0.90750    1.000
    N64      N        0.56357    0.02097    0.33907    1.000
    C64      C        0.59302    0.03235    0.38235    1.000
    H64      H        0.58450    0.06010    0.40750    1.000
    N65      N        0.52097    0.33907    0.06357    1.000
    C65      C        0.53235    0.38235    0.09302    1.000
    H65      H        0.56010    0.40750    0.08450    1.000
    N66      N        0.52097    0.83907    0.56357    1.000
    C66      C        0.53235    0.88235    0.59302    1.000
    H66      H        0.56010    0.90750    0.58450    1.000
    N67      N        0.02097    0.33907    0.56357    1.000
    C67      C        0.03235    0.38235    0.59302    1.000
    H67      H        0.06010    0.40750    0.58450    1.000
    N68      N        0.02097    0.83907    0.06357    1.000
    C68      C        0.03235    0.88235    0.09302    1.000
    H68      H        0.06010    0.90750    0.08450    1.000
    N69      N        0.22903    0.83907    0.18643    1.000
    C69      C        0.21765    0.88235    0.15698    1.000
    H69      H        0.18990    0.90750    0.16550    1.000
    N70      N        0.22903    0.33907    0.68643    1.000
    C70      C        0.21765    0.38235    0.65698    1.000
    H70      H        0.18990    0.40750    0.66550    1.000
    N71      N        0.72903    0.83907    0.68643    1.000
    C71      C        0.71765    0.88235    0.65698    1.000
    H71      H        0.68990    0.90750    0.66550    1.000
    N72      N        0.72903    0.33907    0.18643    1.000
    C72      C        0.71765    0.38235    0.15698    1.000
    H72      H        0.68990    0.40750    0.16550    1.000
    N73      N        0.72903    0.41093    0.56357    1.000
    C73      C        0.71765    0.36765    0.59302    1.000
    H73      H        0.68990    0.34250    0.58450    1.000
    N74      N        0.72903    0.91093    0.06357    1.000
    C74      C        0.71765    0.86765    0.09302    1.000
    H74      H        0.68990    0.84250    0.08450    1.000
    N75      N        0.22903    0.41093    0.06357    1.000
    C75      C        0.21765    0.36765    0.09302    1.000
    H75      H        0.18990    0.34250    0.08450    1.000
    N76      N        0.22903    0.91093    0.56357    1.000
    C76      C        0.21765    0.86765    0.59302    1.000
    H76      H        0.18990    0.84250    0.58450    1.000
    N77      N        0.02097    0.91093    0.68643    1.000
    C77      C        0.03235    0.86765    0.65698    1.000
    H77      H        0.06010    0.84250    0.66550    1.000
    N78      N        0.02097    0.41093    0.18643    1.000
    C78      C        0.03235    0.36765    0.15698    1.000
    H78      H        0.06010    0.34250    0.16550    1.000
    N79      N        0.52097    0.91093    0.18643    1.000
    C79      C        0.53235    0.86765    0.15698    1.000
    H79      H        0.56010    0.84250    0.16550    1.000
    N80      N        0.52097    0.41093    0.68643    1.000
    C80      C        0.53235    0.36765    0.65698    1.000
    H80      H        0.56010    0.34250    0.66550    1.000
    N81      N        0.83907    0.18643    0.22903    1.000
    C81      C        0.88235    0.15698    0.21765    1.000
    H81      H        0.90750    0.16550    0.18990    1.000
    N82      N        0.83907    0.68643    0.72903    1.000
    C82      C        0.88235    0.65698    0.71765    1.000
    H82      H        0.90750    0.66550    0.68990    1.000
    N83      N        0.33907    0.18643    0.72903    1.000
    C83      C        0.38235    0.15698    0.71765    1.000
    H83      H        0.40750    0.16550    0.68990    1.000
    N84      N        0.33907    0.68643    0.22903    1.000
    C84      C        0.38235    0.65698    0.21765    1.000
    H84      H        0.40750    0.66550    0.18990    1.000
    N85      N        0.33907    0.06357    0.52097    1.000
    C85      C        0.38235    0.09302    0.53235    1.000
    H85      H        0.40750    0.08450    0.56010    1.000
    N86      N        0.33907    0.56357    0.02097    1.000
    C86      C        0.38235    0.59302    0.03235    1.000
    H86      H        0.40750    0.58450    0.06010    1.000
    N87      N        0.83907    0.06357    0.02097    1.000
    C87      C        0.88235    0.09302    0.03235    1.000
    H87      H        0.90750    0.08450    0.06010    1.000
    N88      N        0.83907    0.56357    0.52097    1.000
    C88      C        0.88235    0.59302    0.53235    1.000
    H88      H        0.90750    0.58450    0.56010    1.000
    N89      N        0.91093    0.68643    0.02097    1.000
    C89      C        0.86765    0.65698    0.03235    1.000
    H89      H        0.84250    0.66550    0.06010    1.000
    N90      N        0.91093    0.18643    0.52097    1.000
    C90      C        0.86765    0.15698    0.53235    1.000
    H90      H        0.84250    0.16550    0.56010    1.000
    N91      N        0.41093    0.68643    0.52097    1.000
    C91      C        0.36765    0.65698    0.53235    1.000
    H91      H        0.34250    0.66550    0.56010    1.000
    N92      N        0.41093    0.18643    0.02097    1.000
    C92      C        0.36765    0.15698    0.03235    1.000
    H92      H        0.34250    0.16550    0.06010    1.000
    N93      N        0.41093    0.56357    0.72903    1.000
    C93      C        0.36765    0.59302    0.71765    1.000
    H93      H        0.34250    0.58450    0.68990    1.000
    N94      N        0.41093    0.06357    0.22903    1.000
    C94      C        0.36765    0.09302    0.21765    1.000
    H94      H        0.34250    0.08450    0.18990    1.000
    N95      N        0.91093    0.56357    0.22903    1.000
    C95      C        0.86765    0.59302    0.21765    1.000
    H95      H        0.84250    0.58450    0.18990    1.000
    N96      N        0.91093    0.06357    0.72903    1.000
    C96      C        0.86765    0.09302    0.71765    1.000
    H96      H        0.84250    0.08450    0.68990    1.000
    N97      N        0.22903    0.06357    0.91093    1.000
    C97      C        0.21765    0.09302    0.86765    1.000
    H97      H        0.18990    0.08450    0.84250    1.000
    N98      N        0.22903    0.56357    0.41093    1.000
    C98      C        0.21765    0.59302    0.36765    1.000
    H98      H        0.18990    0.58450    0.34250    1.000
    N99      N        0.72903    0.06357    0.41093    1.000
    C99      C        0.71765    0.09302    0.36765    1.000
    H99      H        0.68990    0.08450    0.34250    1.000
    N100     N        0.72903    0.56357    0.91093    1.000
    C100     C        0.71765    0.59302    0.86765    1.000
    H100     H        0.68990    0.58450    0.84250    1.000
    N101     N        0.52097    0.18643    0.41093    1.000
    C101     C        0.53235    0.15698    0.36765    1.000
    H101     H        0.56010    0.16550    0.34250    1.000
    N102     N        0.52097    0.68643    0.91093    1.000
    C102     C        0.53235    0.65698    0.86765    1.000
    H102     H        0.56010    0.66550    0.84250    1.000
    N103     N        0.02097    0.18643    0.91093    1.000
    C103     C        0.03235    0.15698    0.86765    1.000
    H103     H        0.06010    0.16550    0.84250    1.000
    N104     N        0.02097    0.68643    0.41093    1.000
    C104     C        0.03235    0.65698    0.36765    1.000
    H104     H        0.06010    0.66550    0.34250    1.000
    N105     N        0.02097    0.56357    0.83907    1.000
    C105     C        0.03235    0.59302    0.88235    1.000
    H105     H        0.06010    0.58450    0.90750    1.000
    N106     N        0.02097    0.06357    0.33907    1.000
    C106     C        0.03235    0.09302    0.38235    1.000
    H106     H        0.06010    0.08450    0.40750    1.000
    N107     N        0.52097    0.56357    0.33907    1.000
    C107     C        0.53235    0.59302    0.38235    1.000
    H107     H        0.56010    0.58450    0.40750    1.000
    N108     N        0.52097    0.06357    0.83907    1.000
    C108     C        0.53235    0.09302    0.88235    1.000
    H108     H        0.56010    0.08450    0.90750    1.000
    N109     N        0.72903    0.68643    0.33907    1.000
    C109     C        0.71765    0.65698    0.38235    1.000
    H109     H        0.68990    0.66550    0.40750    1.000
    N110     N        0.72903    0.18643    0.83907    1.000
    C110     C        0.71765    0.15698    0.88235    1.000
    H110     H        0.68990    0.16550    0.90750    1.000
    N111     N        0.22903    0.68643    0.83907    1.000
    C111     C        0.21765    0.65698    0.88235    1.000
    H111     H        0.18990    0.66550    0.90750    1.000
    N112     N        0.22903    0.18643    0.33907    1.000
    C112     C        0.21765    0.15698    0.38235    1.000
    H112     H        0.18990    0.16550    0.40750    1.000
    N113     N        0.91093    0.22903    0.06357    1.000
    C113     C        0.86765    0.21765    0.09302    1.000
    H113     H        0.84250    0.18990    0.08450    1.000
    N114     N        0.91093    0.72903    0.56357    1.000
    C114     C        0.86765    0.71765    0.59302    1.000
    H114     H        0.84250    0.68990    0.58450    1.000
    N115     N        0.41093    0.22903    0.56357    1.000
    C115     C        0.36765    0.21765    0.59302    1.000
    H115     H        0.34250    0.18990    0.58450    1.000
    N116     N        0.41093    0.72903    0.06357    1.000
    C116     C        0.36765    0.71765    0.09302    1.000
    H116     H        0.34250    0.68990    0.08450    1.000
    N117     N        0.41093    0.52097    0.18643    1.000
    C117     C        0.36765    0.53235    0.15698    1.000
    H117     H        0.34250    0.56010    0.16550    1.000
    N118     N        0.41093    0.02097    0.68643    1.000
    C118     C        0.36765    0.03235    0.65698    1.000
    H118     H        0.34250    0.06010    0.66550    1.000
    N119     N        0.91093    0.52097    0.68643    1.000
    C119     C        0.86765    0.53235    0.65698    1.000
    H119     H        0.84250    0.56010    0.66550    1.000
    N120     N        0.91093    0.02097    0.18643    1.000
    C120     C        0.86765    0.03235    0.15698    1.000
    H120     H        0.84250    0.06010    0.16550    1.000
    N121     N        0.83907    0.02097    0.56357    1.000
    C121     C        0.88235    0.03235    0.59302    1.000
    H121     H        0.90750    0.06010    0.58450    1.000
    N122     N        0.83907    0.52097    0.06357    1.000
    C122     C        0.88235    0.53235    0.09302    1.000
    H122     H        0.90750    0.56010    0.08450    1.000
    N123     N        0.33907    0.02097    0.06357    1.000
    C123     C        0.38235    0.03235    0.09302    1.000
    H123     H        0.40750    0.06010    0.08450    1.000
    N124     N        0.33907    0.52097    0.56357    1.000
    C124     C        0.38235    0.53235    0.59302    1.000
    H124     H        0.40750    0.56010    0.58450    1.000
    N125     N        0.33907    0.72903    0.68643    1.000
    C125     C        0.38235    0.71765    0.65698    1.000
    H125     H        0.40750    0.68990    0.66550    1.000
    N126     N        0.33907    0.22903    0.18643    1.000
    C126     C        0.38235    0.21765    0.15698    1.000
    H126     H        0.40750    0.18990    0.16550    1.000
    N127     N        0.83907    0.72903    0.18643    1.000
    C127     C        0.88235    0.71765    0.15698    1.000
    H127     H        0.90750    0.68990    0.16550    1.000
    N128     N        0.83907    0.22903    0.68643    1.000
    C128     C        0.88235    0.21765    0.65698    1.000
    H128     H        0.90750    0.18990    0.66550    1.000
    N129     N        0.06357    0.91093    0.22903    1.000
    C129     C        0.09302    0.86765    0.21765    1.000
    H129     H        0.08450    0.84250    0.18990    1.000
    N130     N        0.06357    0.41093    0.72903    1.000
    C130     C        0.09302    0.36765    0.71765    1.000
    H130     H        0.08450    0.34250    0.68990    1.000
    N131     N        0.56357    0.91093    0.72903    1.000
    C131     C        0.59302    0.86765    0.71765    1.000
    H131     H        0.58450    0.84250    0.68990    1.000
    N132     N        0.56357    0.41093    0.22903    1.000
    C132     C        0.59302    0.36765    0.21765    1.000
    H132     H        0.58450    0.34250    0.18990    1.000
    N133     N        0.18643    0.41093    0.52097    1.000
    C133     C        0.15698    0.36765    0.53235    1.000
    H133     H        0.16550    0.34250    0.56010    1.000
    N134     N        0.18643    0.91093    0.02097    1.000
    C134     C        0.15698    0.86765    0.03235    1.000
    H134     H        0.16550    0.84250    0.06010    1.000
    N135     N        0.68643    0.41093    0.02097    1.000
    C135     C        0.65698    0.36765    0.03235    1.000
    H135     H        0.66550    0.34250    0.06010    1.000
    N136     N        0.68643    0.91093    0.52097    1.000
    C136     C        0.65698    0.86765    0.53235    1.000
    H136     H        0.66550    0.84250    0.56010    1.000
    N137     N        0.56357    0.83907    0.02097    1.000
    C137     C        0.59302    0.88235    0.03235    1.000
    H137     H        0.58450    0.90750    0.06010    1.000
    N138     N        0.56357    0.33907    0.52097    1.000
    C138     C        0.59302    0.38235    0.53235    1.000
    H138     H        0.58450    0.40750    0.56010    1.000
    N139     N        0.06357    0.83907    0.52097    1.000
    C139     C        0.09302    0.88235    0.53235    1.000
    H139     H        0.08450    0.90750    0.56010    1.000
    N140     N        0.06357    0.33907    0.02097    1.000
    C140     C        0.09302    0.38235    0.03235    1.000
    H140     H        0.08450    0.40750    0.06010    1.000
    N141     N        0.68643    0.33907    0.72903    1.000
    C141     C        0.65698    0.38235    0.71765    1.000
    H141     H        0.66550    0.40750    0.68990    1.000
    N142     N        0.68643    0.83907    0.22903    1.000
    C142     C        0.65698    0.88235    0.21765    1.000
    H142     H        0.66550    0.90750    0.18990    1.000
    N143     N        0.18643    0.33907    0.22903    1.000
    C143     C        0.15698    0.38235    0.21765    1.000
    H143     H        0.16550    0.40750    0.18990    1.000
    N144     N        0.18643    0.83907    0.72903    1.000
    C144     C        0.15698    0.88235    0.71765    1.000
    H144     H        0.16550    0.90750    0.68990    1.000
    N145     N        0.31357    0.97903    0.08907    1.000
    C145     C        0.34302    0.96765    0.13235    1.000
    H145     H        0.33450    0.93990    0.15750    1.000
    N146     N        0.31357    0.47903    0.58907    1.000
    C146     C        0.34302    0.46765    0.63235    1.000
    H146     H        0.33450    0.43990    0.65750    1.000
    N147     N        0.81357    0.97903    0.58907    1.000
    C147     C        0.84302    0.96765    0.63235    1.000
    H147     H        0.83450    0.93990    0.65750    1.000
    N148     N        0.81357    0.47903    0.08907    1.000
    C148     C        0.84302    0.46765    0.13235    1.000
    H148     H        0.83450    0.43990    0.15750    1.000
    N149     N        0.43643    0.27097    0.58907    1.000
    C149     C        0.40698    0.28235    0.63235    1.000
    H149     H        0.41550    0.31010    0.65750    1.000
    N150     N        0.43643    0.77097    0.08907    1.000
    C150     C        0.40698    0.78235    0.13235    1.000
    H150     H        0.41550    0.81010    0.15750    1.000
    N151     N        0.93643    0.27097    0.08907    1.000
    C151     C        0.90698    0.28235    0.13235    1.000
    H151     H        0.91550    0.31010    0.15750    1.000
    N152     N        0.93643    0.77097    0.58907    1.000
    C152     C        0.90698    0.78235    0.63235    1.000
    H152     H        0.91550    0.81010    0.65750    1.000
    N153     N        0.81357    0.77097    0.16093    1.000
    C153     C        0.84302    0.78235    0.11765    1.000
    H153     H        0.83450    0.81010    0.09250    1.000
    N154     N        0.81357    0.27097    0.66093    1.000
    C154     C        0.84302    0.28235    0.61765    1.000
    H154     H        0.83450    0.31010    0.59250    1.000
    N155     N        0.31357    0.77097    0.66093    1.000
    C155     C        0.34302    0.78235    0.61765    1.000
    H155     H        0.33450    0.81010    0.59250    1.000
    N156     N        0.31357    0.27097    0.16093    1.000
    C156     C        0.34302    0.28235    0.11765    1.000
    H156     H        0.33450    0.31010    0.09250    1.000
    N157     N        0.93643    0.47903    0.66093    1.000
    C157     C        0.90698    0.46765    0.61765    1.000
    H157     H        0.91550    0.43990    0.59250    1.000
    N158     N        0.93643    0.97903    0.16093    1.000
    C158     C        0.90698    0.96765    0.11765    1.000
    H158     H        0.91550    0.93990    0.09250    1.000
    N159     N        0.43643    0.47903    0.16093    1.000
    C159     C        0.40698    0.46765    0.11765    1.000
    H159     H        0.41550    0.43990    0.09250    1.000
    N160     N        0.43643    0.97903    0.66093    1.000
    C160     C        0.40698    0.96765    0.61765    1.000
    H160     H        0.41550    0.93990    0.59250    1.000
    N161     N        0.47903    0.66093    0.93643    1.000
    C161     C        0.46765    0.61765    0.90698    1.000
    H161     H        0.43990    0.59250    0.91550    1.000
    N162     N        0.47903    0.16093    0.43643    1.000
    C162     C        0.46765    0.11765    0.40698    1.000
    H162     H        0.43990    0.09250    0.41550    1.000
    N163     N        0.97903    0.66093    0.43643    1.000
    C163     C        0.96765    0.61765    0.40698    1.000
    H163     H        0.93990    0.59250    0.41550    1.000
    N164     N        0.97903    0.16093    0.93643    1.000
    C164     C        0.96765    0.11765    0.90698    1.000
    H164     H        0.93990    0.09250    0.91550    1.000
    N165     N        0.77097    0.16093    0.81357    1.000
    C165     C        0.78235    0.11765    0.84302    1.000
    H165     H        0.81010    0.09250    0.83450    1.000
    N166     N        0.77097    0.66093    0.31357    1.000
    C166     C        0.78235    0.61765    0.34302    1.000
    H166     H        0.81010    0.59250    0.33450    1.000
    N167     N        0.27097    0.16093    0.31357    1.000
    C167     C        0.28235    0.11765    0.34302    1.000
    H167     H        0.31010    0.09250    0.33450    1.000
    N168     N        0.27097    0.66093    0.81357    1.000
    C168     C        0.28235    0.61765    0.84302    1.000
    H168     H        0.31010    0.59250    0.83450    1.000
    N169     N        0.27097    0.58907    0.43643    1.000
    C169     C        0.28235    0.63235    0.40698    1.000
    H169     H        0.31010    0.65750    0.41550    1.000
    N170     N        0.27097    0.08907    0.93643    1.000
    C170     C        0.28235    0.13235    0.90698    1.000
    H170     H        0.31010    0.15750    0.91550    1.000
    N171     N        0.77097    0.58907    0.93643    1.000
    C171     C        0.78235    0.63235    0.90698    1.000
    H171     H        0.81010    0.65750    0.91550    1.000
    N172     N        0.77097    0.08907    0.43643    1.000
    C172     C        0.78235    0.13235    0.40698    1.000
    H172     H        0.81010    0.15750    0.41550    1.000
    N173     N        0.97903    0.08907    0.31357    1.000
    C173     C        0.96765    0.13235    0.34302    1.000
    H173     H        0.93990    0.15750    0.33450    1.000
    N174     N        0.97903    0.58907    0.81357    1.000
    C174     C        0.96765    0.63235    0.84302    1.000
    H174     H        0.93990    0.65750    0.83450    1.000
    N175     N        0.47903    0.08907    0.81357    1.000
    C175     C        0.46765    0.13235    0.84302    1.000
    H175     H        0.43990    0.15750    0.83450    1.000
    N176     N        0.47903    0.58907    0.31357    1.000
    C176     C        0.46765    0.63235    0.34302    1.000
    H176     H        0.43990    0.65750    0.33450    1.000
    N177     N        0.16093    0.81357    0.77097    1.000
    C177     C        0.11765    0.84302    0.78235    1.000
    H177     H        0.09250    0.83450    0.81010    1.000
    N178     N        0.16093    0.31357    0.27097    1.000
    C178     C        0.11765    0.34302    0.28235    1.000
    H178     H        0.09250    0.33450    0.31010    1.000
    N179     N        0.66093    0.81357    0.27097    1.000
    C179     C        0.61765    0.84302    0.28235    1.000
    H179     H        0.59250    0.83450    0.31010    1.000
    N180     N        0.66093    0.31357    0.77097    1.000
    C180     C        0.61765    0.34302    0.78235    1.000
    H180     H        0.59250    0.33450    0.81010    1.000
    N181     N        0.66093    0.93643    0.47903    1.000
    C181     C        0.61765    0.90698    0.46765    1.000
    H181     H        0.59250    0.91550    0.43990    1.000
    N182     N        0.66093    0.43643    0.97903    1.000
    C182     C        0.61765    0.40698    0.96765    1.000
    H182     H        0.59250    0.41550    0.93990    1.000
    N183     N        0.16093    0.93643    0.97903    1.000
    C183     C        0.11765    0.90698    0.96765    1.000
    H183     H        0.09250    0.91550    0.93990    1.000
    N184     N        0.16093    0.43643    0.47903    1.000
    C184     C        0.11765    0.40698    0.46765    1.000
    H184     H        0.09250    0.41550    0.43990    1.000
    N185     N        0.08907    0.31357    0.97903    1.000
    C185     C        0.13235    0.34302    0.96765    1.000
    H185     H        0.15750    0.33450    0.93990    1.000
    N186     N        0.08907    0.81357    0.47903    1.000
    C186     C        0.13235    0.84302    0.46765    1.000
    H186     H        0.15750    0.83450    0.43990    1.000
    N187     N        0.58907    0.31357    0.47903    1.000
    C187     C        0.63235    0.34302    0.46765    1.000
    H187     H        0.65750    0.33450    0.43990    1.000
    N188     N        0.58907    0.81357    0.97903    1.000
    C188     C        0.63235    0.84302    0.96765    1.000
    H188     H        0.65750    0.83450    0.93990    1.000
    N189     N        0.58907    0.43643    0.27097    1.000
    C189     C        0.63235    0.40698    0.28235    1.000
    H189     H        0.65750    0.41550    0.31010    1.000
    N190     N        0.58907    0.93643    0.77097    1.000
    C190     C        0.63235    0.90698    0.78235    1.000
    H190     H        0.65750    0.91550    0.81010    1.000
    N191     N        0.08907    0.43643    0.77097    1.000
    C191     C        0.13235    0.40698    0.78235    1.000
    H191     H        0.15750    0.41550    0.81010    1.000
    N192     N        0.08907    0.93643    0.27097    1.000
    C192     C        0.13235    0.90698    0.28235    1.000
    H192     H        0.15750    0.91550    0.31010    1.000
    Cu1      Cu       0.80640    0.00000    0.05640    1.000
    Cu2      Cu       0.80640    0.50000    0.55640    1.000
    Cu3      Cu       0.44360    0.75000    0.55640    1.000
    Cu4      Cu       0.44360    0.25000    0.05640    1.000
    Cu5      Cu       0.94360    0.50000    0.19360    1.000
    Cu6      Cu       0.94360    0.00000    0.69360    1.000
    Cu7      Cu       0.30640    0.25000    0.69360    1.000
    Cu8      Cu       0.30640    0.75000    0.19360    1.000
    Cu9      Cu       0.05640    0.80640    0.00000    1.000
    Cu10     Cu       0.05640    0.30640    0.50000    1.000
    Cu11     Cu       0.55640    0.44360    0.75000    1.000
    Cu12     Cu       0.55640    0.94360    0.25000    1.000
    Cu13     Cu       0.19360    0.94360    0.50000    1.000
    Cu14     Cu       0.19360    0.44360    0.00000    1.000
    Cu15     Cu       0.69360    0.30640    0.25000    1.000
    Cu16     Cu       0.69360    0.80640    0.75000    1.000
    Cu17     Cu       0.00000    0.05640    0.80640    1.000
    Cu18     Cu       0.50000    0.05640    0.30640    1.000
    Cu19     Cu       0.75000    0.55640    0.44360    1.000
    Cu20     Cu       0.25000    0.55640    0.94360    1.000
    Cu21     Cu       0.50000    0.19360    0.94360    1.000
    Cu22     Cu       0.00000    0.19360    0.44360    1.000
    Cu23     Cu       0.25000    0.69360    0.30640    1.000
    Cu24     Cu       0.75000    0.69360    0.80640    1.000
    Cu25     Cu       0.75000    0.05640    0.94360    1.000
    Cu26     Cu       0.25000    0.05640    0.44360    1.000
    Cu27     Cu       0.50000    0.69360    0.44360    1.000
    Cu28     Cu       0.00000    0.69360    0.94360    1.000
    Cu29     Cu       0.25000    0.19360    0.80640    1.000
    Cu30     Cu       0.75000    0.19360    0.30640    1.000
    Cu31     Cu       0.00000    0.55640    0.30640    1.000
    Cu32     Cu       0.50000    0.55640    0.80640    1.000
    Cu33     Cu       0.55640    0.30640    0.00000    1.000
    Cu34     Cu       0.55640    0.80640    0.50000    1.000
    Cu35     Cu       0.19360    0.80640    0.25000    1.000
    Cu36     Cu       0.19360    0.30640    0.75000    1.000
    Cu37     Cu       0.69360    0.44360    0.50000    1.000
    Cu38     Cu       0.69360    0.94360    0.00000    1.000
    Cu39     Cu       0.05640    0.94360    0.75000    1.000
    Cu40     Cu       0.05640    0.44360    0.25000    1.000
    Cu41     Cu       0.80640    0.25000    0.19360    1.000
    Cu42     Cu       0.80640    0.75000    0.69360    1.000
    Cu43     Cu       0.30640    0.00000    0.55640    1.000
    Cu44     Cu       0.30640    0.50000    0.05640    1.000
    Cu45     Cu       0.94360    0.75000    0.05640    1.000
    Cu46     Cu       0.94360    0.25000    0.55640    1.000
    Cu47     Cu       0.44360    0.50000    0.69360    1.000
    Cu48     Cu       0.44360    0.00000    0.19360    1.000
    Cu49     Cu       0.19360    0.00000    0.94360    1.000
    Cu50     Cu       0.19360    0.50000    0.44360    1.000
    Cu51     Cu       0.55640    0.25000    0.44360    1.000
    Cu52     Cu       0.55640    0.75000    0.94360    1.000
    Cu53     Cu       0.05640    0.50000    0.80640    1.000
    Cu54     Cu       0.05640    0.00000    0.30640    1.000
    Cu55     Cu       0.69360    0.75000    0.30640    1.000
    Cu56     Cu       0.69360    0.25000    0.80640    1.000
    Cu57     Cu       0.94360    0.19360    0.00000    1.000
    Cu58     Cu       0.94360    0.69360    0.50000    1.000
    Cu59     Cu       0.44360    0.55640    0.25000    1.000
    Cu60     Cu       0.44360    0.05640    0.75000    1.000
    Cu61     Cu       0.80640    0.05640    0.50000    1.000
    Cu62     Cu       0.80640    0.55640    0.00000    1.000
    Cu63     Cu       0.30640    0.69360    0.75000    1.000
    Cu64     Cu       0.30640    0.19360    0.25000    1.000
    Cu65     Cu       0.00000    0.94360    0.19360    1.000
    Cu66     Cu       0.50000    0.94360    0.69360    1.000
    Cu67     Cu       0.25000    0.44360    0.55640    1.000
    Cu68     Cu       0.75000    0.44360    0.05640    1.000
    Cu69     Cu       0.50000    0.80640    0.05640    1.000
    Cu70     Cu       0.00000    0.80640    0.55640    1.000
    Cu71     Cu       0.75000    0.30640    0.69360    1.000
    Cu72     Cu       0.25000    0.30640    0.19360    1.000
    Cu73     Cu       0.25000    0.94360    0.05640    1.000
    Cu74     Cu       0.75000    0.94360    0.55640    1.000
    Cu75     Cu       0.50000    0.30640    0.55640    1.000
    Cu76     Cu       0.00000    0.30640    0.05640    1.000
    Cu77     Cu       0.75000    0.80640    0.19360    1.000
    Cu78     Cu       0.25000    0.80640    0.69360    1.000
    Cu79     Cu       0.00000    0.44360    0.69360    1.000
    Cu80     Cu       0.50000    0.44360    0.19360    1.000
    Cu81     Cu       0.44360    0.69360    0.00000    1.000
    Cu82     Cu       0.44360    0.19360    0.50000    1.000
    Cu83     Cu       0.80640    0.19360    0.75000    1.000
    Cu84     Cu       0.80640    0.69360    0.25000    1.000
    Cu85     Cu       0.30640    0.55640    0.50000    1.000
    Cu86     Cu       0.30640    0.05640    0.00000    1.000
    Cu87     Cu       0.94360    0.05640    0.25000    1.000
    Cu88     Cu       0.94360    0.55640    0.75000    1.000
    Cu89     Cu       0.19360    0.75000    0.80640    1.000
    Cu90     Cu       0.19360    0.25000    0.30640    1.000
    Cu91     Cu       0.69360    0.00000    0.44360    1.000
    Cu92     Cu       0.69360    0.50000    0.94360    1.000
    Cu93     Cu       0.05640    0.25000    0.94360    1.000
    Cu94     Cu       0.05640    0.75000    0.44360    1.000
    Cu95     Cu       0.55640    0.50000    0.30640    1.000
    Cu96     Cu       0.55640    0.00000    0.80640    1.000
    N193     N        0.75000    0.86372    0.13628    1.000
    N194     N        0.25000    0.86372    0.63628    1.000
    N195     N        0.50000    0.88628    0.63628    1.000
    N196     N        0.00000    0.88628    0.13628    1.000
    N197     N        0.00000    0.36372    0.11372    1.000
    N198     N        0.50000    0.36372    0.61372    1.000
    N199     N        0.25000    0.38628    0.61372    1.000
    N200     N        0.75000    0.38628    0.11372    1.000
    N201     N        0.13628    0.75000    0.86372    1.000
    N202     N        0.13628    0.25000    0.36372    1.000
    N203     N        0.63628    0.50000    0.88628    1.000
    N204     N        0.63628    0.00000    0.38628    1.000
    N205     N        0.11372    0.00000    0.36372    1.000
    N206     N        0.11372    0.50000    0.86372    1.000
    N207     N        0.61372    0.25000    0.38628    1.000
    N208     N        0.61372    0.75000    0.88628    1.000
    N209     N        0.86372    0.13628    0.75000    1.000
    N210     N        0.86372    0.63628    0.25000    1.000
    N211     N        0.88628    0.63628    0.50000    1.000
    N212     N        0.88628    0.13628    0.00000    1.000
    N213     N        0.36372    0.11372    0.00000    1.000
    N214     N        0.36372    0.61372    0.50000    1.000
    N215     N        0.38628    0.61372    0.25000    1.000
    N216     N        0.38628    0.11372    0.75000    1.000
    N217     N        0.61372    0.00000    0.86372    1.000
    N218     N        0.61372    0.50000    0.36372    1.000
    N219     N        0.63628    0.75000    0.36372    1.000
    N220     N        0.63628    0.25000    0.86372    1.000
    N221     N        0.11372    0.25000    0.88628    1.000
    N222     N        0.11372    0.75000    0.38628    1.000
    N223     N        0.13628    0.50000    0.38628    1.000
    N224     N        0.13628    0.00000    0.88628    1.000
    N225     N        0.50000    0.38628    0.13628    1.000
    N226     N        0.00000    0.38628    0.63628    1.000
    N227     N        0.25000    0.88628    0.11372    1.000
    N228     N        0.75000    0.88628    0.61372    1.000
    N229     N        0.75000    0.36372    0.63628    1.000
    N230     N        0.25000    0.36372    0.13628    1.000
    N231     N        0.00000    0.86372    0.61372    1.000
    N232     N        0.50000    0.86372    0.11372    1.000
    N233     N        0.88628    0.11372    0.25000    1.000
    N234     N        0.88628    0.61372    0.75000    1.000
    N235     N        0.38628    0.13628    0.50000    1.000
    N236     N        0.38628    0.63628    0.00000    1.000
    N237     N        0.86372    0.61372    0.00000    1.000
    N238     N        0.86372    0.11372    0.50000    1.000
    N239     N        0.36372    0.63628    0.75000    1.000
    N240     N        0.36372    0.13628    0.25000    1.000
    N241     N        0.25000    0.13628    0.86372    1.000
    N242     N        0.75000    0.13628    0.36372    1.000
    N243     N        0.50000    0.11372    0.36372    1.000
    N244     N        0.00000    0.11372    0.86372    1.000
    N245     N        0.00000    0.63628    0.88628    1.000
    N246     N        0.50000    0.63628    0.38628    1.000
    N247     N        0.75000    0.61372    0.38628    1.000
    N248     N        0.25000    0.61372    0.88628    1.000
    N249     N        0.86372    0.25000    0.13628    1.000
    N250     N        0.86372    0.75000    0.63628    1.000
    N251     N        0.36372    0.50000    0.11372    1.000
    N252     N        0.36372    0.00000    0.61372    1.000
    N253     N        0.88628    0.00000    0.63628    1.000
    N254     N        0.88628    0.50000    0.13628    1.000
    N255     N        0.38628    0.75000    0.61372    1.000
    N256     N        0.38628    0.25000    0.11372    1.000
    N257     N        0.13628    0.86372    0.25000    1.000
    N258     N        0.13628    0.36372    0.75000    1.000
    N259     N        0.11372    0.36372    0.50000    1.000
    N260     N        0.11372    0.86372    0.00000    1.000
    N261     N        0.63628    0.88628    0.00000    1.000
    N262     N        0.63628    0.38628    0.50000    1.000
    N263     N        0.61372    0.38628    0.75000    1.000
    N264     N        0.61372    0.88628    0.25000    1.000
    N265     N        0.38628    0.00000    0.13628    1.000
    N266     N        0.38628    0.50000    0.63628    1.000
    N267     N        0.36372    0.25000    0.63628    1.000
    N268     N        0.36372    0.75000    0.13628    1.000
    N269     N        0.88628    0.75000    0.11372    1.000
    N270     N        0.88628    0.25000    0.61372    1.000
    N271     N        0.86372    0.50000    0.61372    1.000
    N272     N        0.86372    0.00000    0.11372    1.000
    N273     N        0.50000    0.61372    0.86372    1.000
    N274     N        0.00000    0.61372    0.36372    1.000
    N275     N        0.75000    0.11372    0.88628    1.000
    N276     N        0.25000    0.11372    0.38628    1.000
    N277     N        0.25000    0.63628    0.36372    1.000
    N278     N        0.75000    0.63628    0.86372    1.000
    N279     N        0.00000    0.13628    0.38628    1.000
    N280     N        0.50000    0.13628    0.88628    1.000
    N281     N        0.11372    0.88628    0.75000    1.000
    N282     N        0.11372    0.38628    0.25000    1.000
    N283     N        0.61372    0.86372    0.50000    1.000
    N284     N        0.61372    0.36372    0.00000    1.000
    N285     N        0.13628    0.38628    0.00000    1.000
    N286     N        0.13628    0.88628    0.50000    1.000
    N287     N        0.63628    0.36372    0.25000    1.000
    N288     N        0.63628    0.86372    0.75000    1.000
    O1       O        0.73882    0.01118    0.01118    1.000
    O2       O        0.51118    0.73882    0.51118    1.000
    O3       O        0.01118    0.51118    0.23882    1.000
    O4       O        0.23882    0.23882    0.73882    1.000
    O5       O        0.01118    0.73882    0.01118    1.000
    O6       O        0.01118    0.23882    0.51118    1.000
    O7       O        0.51118    0.51118    0.73882    1.000
    O8       O        0.51118    0.01118    0.23882    1.000
    O9       O        0.23882    0.01118    0.51118    1.000
    O10      O        0.23882    0.51118    0.01118    1.000
    O11      O        0.73882    0.23882    0.23882    1.000
    O12      O        0.73882    0.73882    0.73882    1.000
    O13      O        0.01118    0.01118    0.73882    1.000
    O14      O        0.73882    0.51118    0.51118    1.000
    O15      O        0.51118    0.23882    0.01118    1.000
    O16      O        0.23882    0.73882    0.23882    1.000
    O17      O        0.76118    0.98882    0.98882    1.000
    O18      O        0.48882    0.76118    0.48882    1.000
    O19      O        0.26118    0.26118    0.76118    1.000
    O20      O        0.98882    0.48882    0.26118    1.000
    O21      O        0.48882    0.26118    0.98882    1.000
    O22      O        0.26118    0.76118    0.26118    1.000
    O23      O        0.76118    0.48882    0.48882    1.000
    O24      O        0.98882    0.98882    0.76118    1.000
    O25      O        0.76118    0.26118    0.26118    1.000
    O26      O        0.76118    0.76118    0.76118    1.000
    O27      O        0.26118    0.98882    0.48882    1.000
    O28      O        0.26118    0.48882    0.98882    1.000
    O29      O        0.98882    0.76118    0.98882    1.000
    O30      O        0.98882    0.26118    0.48882    1.000
    O31      O        0.48882    0.48882    0.76118    1.000
    O32      O        0.48882    0.98882    0.26118    1.000
    O33      O        0.26118    0.98882    0.98882    1.000
    O34      O        0.48882    0.26118    0.48882    1.000
    O35      O        0.98882    0.48882    0.76118    1.000
    O36      O        0.76118    0.76118    0.26118    1.000
    O37      O        0.98882    0.26118    0.98882    1.000
    O38      O        0.98882    0.76118    0.48882    1.000
    O39      O        0.48882    0.48882    0.26118    1.000
    O40      O        0.48882    0.98882    0.76118    1.000
    O41      O        0.76118    0.98882    0.48882    1.000
    O42      O        0.76118    0.48882    0.98882    1.000
    O43      O        0.26118    0.76118    0.76118    1.000
    O44      O        0.26118    0.26118    0.26118    1.000
    O45      O        0.98882    0.98882    0.26118    1.000
    O46      O        0.26118    0.48882    0.48882    1.000
    O47      O        0.48882    0.76118    0.98882    1.000
    O48      O        0.76118    0.26118    0.76118    1.000
    O49      O        0.23882    0.01118    0.01118    1.000
    O50      O        0.51118    0.23882    0.51118    1.000
    O51      O        0.73882    0.73882    0.23882    1.000
    O52      O        0.01118    0.51118    0.73882    1.000
    O53      O        0.51118    0.73882    0.01118    1.000
    O54      O        0.73882    0.23882    0.73882    1.000
    O55      O        0.23882    0.51118    0.51118    1.000
    O56      O        0.01118    0.01118    0.23882    1.000
    O57      O        0.23882    0.73882    0.73882    1.000
    O58      O        0.23882    0.23882    0.23882    1.000
    O59      O        0.73882    0.01118    0.51118    1.000
    O60      O        0.73882    0.51118    0.01118    1.000
    O61      O        0.01118    0.23882    0.01118    1.000
    O62      O        0.01118    0.73882    0.51118    1.000
    O63      O        0.51118    0.51118    0.23882    1.000
    O64      O        0.51118    0.01118    0.73882    1.000
