# CIF file generated by openbabel 3.1.0, see https://openbabel.org
data_I
_chemical_name_common 'image0'
_cell_length_a 15.8642
_cell_length_b 15.8642
_cell_length_c 42.9758
_cell_angle_alpha 90
_cell_angle_beta 90
_cell_angle_gamma 90
_space_group_name_H-M_alt 'P 1'
_space_group_name_Hall 'P 1'
loop_
    _symmetry_equiv_pos_as_xyz
    x,y,z
loop_
    _atom_site_label
    _atom_site_type_symbol
    _atom_site_fract_x
    _atom_site_fract_y
    _atom_site_fract_z
    _atom_site_occupancy
    Cd1      Cd       0.08234    0.78153    0.78138    1.000
    O1       O        0.23170    0.39210    0.69186    1.000
    O2       O        0.22890    0.37200    0.62515    1.000
    H1       H        0.25770    0.37550    0.64150    1.000
    O3       O        0.06840    0.28290    0.62139    1.000
    O4       O        0.06930    0.33140    0.68311    1.000
    H2       H        0.05340    0.30200    0.66800    1.000
    O5       O        0.11830    0.75850    0.73113    1.000
    O6       O        0.22910    0.78680    0.70201    1.000
    O7       O        0.76890    0.52090    0.57791    1.000
    O8       O        0.85740    0.53210    0.53840    1.000
    N1       N        0.05860    0.92150    0.79290    1.000
    N2       N        0.95210    0.80060    0.76140    1.000
    C1       C        0.27180    0.51600    0.62355    1.000
    C2       C        0.31820    0.51030    0.65260    1.000
    H3       H        0.36810    0.54770    0.65190    1.000
    H4       H        0.33790    0.45180    0.65590    1.000
    C3       C        0.26020    0.53690    0.67933    1.000
    C4       C        0.24920    0.61990    0.68559    1.000
    H5       H        0.28220    0.66070    0.67490    1.000
    C5       C        0.19010    0.64600    0.70748    1.000
    C6       C        0.14200    0.58570    0.72279    1.000
    H6       H        0.09930    0.60300    0.73690    1.000
    C7       C        0.15540    0.50200    0.71772    1.000
    C8       C        0.09950    0.43750    0.73458    1.000
    H7       H        0.12820    0.38210    0.73460    1.000
    H8       H        0.09220    0.45530    0.75650    1.000
    C9       C        0.01250    0.42760    0.71960    1.000
    C10      C        0.94440    0.47330    0.73062    1.000
    H9       H        0.95120    0.51080    0.74770    1.000
    C11      C        0.86670    0.46390    0.71670    1.000
    H10      H        0.81990    0.49510    0.72430    1.000
    C12      C        0.85620    0.41120    0.69245    1.000
    H11      H        0.80160    0.40400    0.68370    1.000
    C13      C        0.92390    0.36700    0.67992    1.000
    C14      C        0.91050    0.30940    0.65299    1.000
    H12      H        0.85050    0.29260    0.65190    1.000
    H13      H        0.94490    0.25790    0.65560    1.000
    C15      C        0.93600    0.35490    0.62252    1.000
    C16      C        0.88180    0.40960    0.60862    1.000
    H14      H        0.82770    0.41810    0.61750    1.000
    C17      C        0.90310    0.45370    0.58166    1.000
    C18      C        0.98300    0.44480    0.57034    1.000
    H15      H        0.00090    0.47840    0.55330    1.000
    C19      C        0.03920    0.38660    0.58356    1.000
    C20      C        0.13080    0.38660    0.57113    1.000
    H16      H        0.15810    0.33260    0.57680    1.000
    H17      H        0.12950    0.39020    0.54810    1.000
    C21      C        0.18090    0.45530    0.58314    1.000
    C22      C        0.18150    0.53600    0.56910    1.000
    H18      H        0.15290    0.54290    0.54990    1.000
    C23      C        0.22140    0.60520    0.58180    1.000
    H19      H        0.21690    0.65910    0.57230    1.000
    C24      C        0.26760    0.59410    0.60850    1.000
    H20      H        0.29760    0.64060    0.61700    1.000
    C25      C        0.22640    0.44840    0.61096    1.000
    C26      C        0.01540    0.34370    0.60845    1.000
    C27      C        0.00290    0.37590    0.69441    1.000
    C28      C        0.21630    0.47820    0.69679    1.000
    C29      C        0.17670    0.73710    0.71425    1.000
    C30      C        0.84020    0.50670    0.56547    1.000
    C31      C        0.06570    0.20370    0.60540    1.000
    H21      H        0.06930    0.21170    0.58260    1.000
    H22      H        0.01320    0.17270    0.61040    1.000
    C32      C        0.14780    0.15390    0.61850    1.000
    H23      H        0.16190    0.10410    0.60560    1.000
    H24      H        0.19760    0.19120    0.62020    1.000
    C33      C        0.11550    0.13040    0.64850    1.000
    H25      H        0.14910    0.15740    0.66480    1.000
    H26      H        0.11860    0.06900    0.65090    1.000
    H27      H        0.05670    0.14870    0.65030    1.000
    C34      C        0.30140    0.36220    0.71002    1.000
    H28      H        0.28600    0.36090    0.73230    1.000
    H29      H        0.35040    0.40020    0.70750    1.000
    C35      C        0.32330    0.27580    0.69913    1.000
    H30      H        0.33850    0.27740    0.67680    1.000
    H31      H        0.27400    0.23810    0.70160    1.000
    C36      C        0.39700    0.24220    0.71800    1.000
    H32      H        0.44890    0.27090    0.71160    1.000
    H33      H        0.40290    0.18150    0.71440    1.000
    H34      H        0.38690    0.25250    0.74020    1.000
    C37      C        0.08860    0.97710    0.80650    1.000
    H35      H        0.14330    0.96480    0.81420    1.000
    C38      C        0.06080    0.06020    0.81400    1.000
    H36      H        0.09460    0.10010    0.82470    1.000
    C39      C        0.97810    0.07700    0.80380    1.000
    H37      H        0.95430    0.13080    0.80790    1.000
    C40      C        0.93330    0.02110    0.78890    1.000
    C41      C        0.96350    0.93930    0.78280    1.000
    C42      C        0.91550    0.87890    0.76580    1.000
    C43      C        0.90520    0.74130    0.74570    1.000
    H38      H        0.92770    0.68630    0.74310    1.000
    C44      C        0.82790    0.75870    0.73380    1.000
    H39      H        0.79920    0.71890    0.72120    1.000
    C45      C        0.79140    0.83730    0.74070    1.000
    H40      H        0.73460    0.84760    0.73470    1.000
    C46      C        0.83440    0.89840    0.75560    1.000
    C47      C        0.80120    0.98030    0.76250    1.000
    H41      H        0.74550    0.99360    0.75600    1.000
    C48      C        0.84760    0.04060    0.77820    1.000
    H42      H        0.82400    0.09460    0.78210    1.000
    N3       N        0.94730    0.82460    0.76120    1.000
    N4       N        0.04210    0.92230    0.79080    1.000
    C49      C        0.11270    0.97100    0.80840    1.000
    H43      H        0.16560    0.94550    0.81270    1.000
    C50      C        0.09620    0.04940    0.81710    1.000
    H44      H        0.13790    0.08250    0.82720    1.000
    C51      C        0.01440    0.08310    0.81100    1.000
    H45      H        0.00040    0.13740    0.81880    1.000
    C52      C        0.95680    0.04010    0.79460    1.000
    C53      C        0.87430    0.06580    0.78700    1.000
    H46      H        0.85620    0.12070    0.79290    1.000
    C54      C        0.81960    0.01460    0.77150    1.000
    H47      H        0.76460    0.03480    0.76690    1.000
    C55      C        0.84230    0.93180    0.76220    1.000
    C56      C        0.79390    0.87780    0.74630    1.000
    H48      H        0.73890    0.89640    0.74080    1.000
    C57      C        0.81660    0.79710    0.73710    1.000
    H49      H        0.77880    0.76030    0.72660    1.000
    C58      C        0.90010    0.77390    0.74460    1.000
    H50      H        0.92220    0.72160    0.73760    1.000
    C59      C        0.92690    0.90420    0.77100    1.000
    C60      C        0.98120    0.95530    0.78590    1.000
    Cd2      Cd       0.91766    0.21847    0.28138    1.000
    O9       O        0.76830    0.60790    0.19186    1.000
    O10      O        0.77110    0.62800    0.12515    1.000
    H51      H        0.74230    0.62450    0.14150    1.000
    O11      O        0.93160    0.71710    0.12139    1.000
    O12      O        0.93070    0.66860    0.18311    1.000
    H52      H        0.94660    0.69800    0.16800    1.000
    O13      O        0.88170    0.24150    0.23113    1.000
    O14      O        0.77090    0.21320    0.20201    1.000
    O15      O        0.23110    0.47910    0.07791    1.000
    O16      O        0.14260    0.46790    0.03840    1.000
    N5       N        0.94140    0.07850    0.29290    1.000
    N6       N        0.04790    0.19940    0.26140    1.000
    C61      C        0.72820    0.48400    0.12355    1.000
    C62      C        0.68180    0.48970    0.15260    1.000
    H53      H        0.63190    0.45230    0.15190    1.000
    H54      H        0.66210    0.54820    0.15590    1.000
    C63      C        0.73980    0.46310    0.17933    1.000
    C64      C        0.75080    0.38010    0.18559    1.000
    H55      H        0.71780    0.33930    0.17490    1.000
    C65      C        0.80990    0.35400    0.20748    1.000
    C66      C        0.85800    0.41430    0.22279    1.000
    H56      H        0.90070    0.39700    0.23690    1.000
    C67      C        0.84460    0.49800    0.21772    1.000
    C68      C        0.90050    0.56250    0.23458    1.000
    H57      H        0.87180    0.61790    0.23460    1.000
    H58      H        0.90780    0.54470    0.25650    1.000
    C69      C        0.98750    0.57240    0.21960    1.000
    C70      C        0.05560    0.52670    0.23062    1.000
    H59      H        0.04880    0.48920    0.24770    1.000
    C71      C        0.13330    0.53610    0.21670    1.000
    H60      H        0.18010    0.50490    0.22430    1.000
    C72      C        0.14380    0.58880    0.19245    1.000
    H61      H        0.19840    0.59600    0.18370    1.000
    C73      C        0.07610    0.63300    0.17992    1.000
    C74      C        0.08950    0.69060    0.15299    1.000
    H62      H        0.14950    0.70740    0.15190    1.000
    H63      H        0.05510    0.74210    0.15560    1.000
    C75      C        0.06400    0.64510    0.12252    1.000
    C76      C        0.11820    0.59040    0.10862    1.000
    H64      H        0.17230    0.58190    0.11750    1.000
    C77      C        0.09690    0.54630    0.08166    1.000
    C78      C        0.01700    0.55520    0.07034    1.000
    H65      H        0.99910    0.52160    0.05330    1.000
    C79      C        0.96080    0.61340    0.08356    1.000
    C80      C        0.86920    0.61340    0.07113    1.000
    H66      H        0.84190    0.66740    0.07680    1.000
    H67      H        0.87050    0.60980    0.04810    1.000
    C81      C        0.81910    0.54470    0.08314    1.000
    C82      C        0.81850    0.46400    0.06910    1.000
    H68      H        0.84710    0.45710    0.04990    1.000
    C83      C        0.77860    0.39480    0.08180    1.000
    H69      H        0.78310    0.34090    0.07230    1.000
    C84      C        0.73240    0.40590    0.10850    1.000
    H70      H        0.70240    0.35940    0.11700    1.000
    C85      C        0.77360    0.55160    0.11096    1.000
    C86      C        0.98460    0.65630    0.10845    1.000
    C87      C        0.99710    0.62410    0.19441    1.000
    C88      C        0.78370    0.52180    0.19679    1.000
    C89      C        0.82330    0.26290    0.21425    1.000
    C90      C        0.15980    0.49330    0.06547    1.000
    C91      C        0.93430    0.79630    0.10540    1.000
    H71      H        0.93070    0.78830    0.08260    1.000
    H72      H        0.98680    0.82730    0.11040    1.000
    C92      C        0.85220    0.84610    0.11850    1.000
    H73      H        0.83810    0.89590    0.10560    1.000
    H74      H        0.80240    0.80880    0.12020    1.000
    C93      C        0.88450    0.86960    0.14850    1.000
    H75      H        0.85090    0.84260    0.16480    1.000
    H76      H        0.88140    0.93100    0.15090    1.000
    H77      H        0.94330    0.85130    0.15030    1.000
    C94      C        0.69860    0.63780    0.21002    1.000
    H78      H        0.71400    0.63910    0.23230    1.000
    H79      H        0.64960    0.59980    0.20750    1.000
    C95      C        0.67670    0.72420    0.19913    1.000
    H80      H        0.66150    0.72260    0.17680    1.000
    H81      H        0.72600    0.76190    0.20160    1.000
    C96      C        0.60300    0.75780    0.21800    1.000
    H82      H        0.55110    0.72910    0.21160    1.000
    H83      H        0.59710    0.81850    0.21440    1.000
    H84      H        0.61310    0.74750    0.24020    1.000
    C97      C        0.91140    0.02290    0.30650    1.000
    H85      H        0.85670    0.03520    0.31420    1.000
    C98      C        0.93920    0.93980    0.31400    1.000
    H86      H        0.90540    0.89990    0.32470    1.000
    C99      C        0.02190    0.92300    0.30380    1.000
    H87      H        0.04570    0.86920    0.30790    1.000
    C100     C        0.06670    0.97890    0.28890    1.000
    C101     C        0.03650    0.06070    0.28280    1.000
    C102     C        0.08450    0.12110    0.26580    1.000
    C103     C        0.09480    0.25870    0.24570    1.000
    H88      H        0.07230    0.31370    0.24310    1.000
    C104     C        0.17210    0.24130    0.23380    1.000
    H89      H        0.20080    0.28110    0.22120    1.000
    C105     C        0.20860    0.16270    0.24070    1.000
    H90      H        0.26540    0.15240    0.23470    1.000
    C106     C        0.16560    0.10160    0.25560    1.000
    C107     C        0.19880    0.01970    0.26250    1.000
    H91      H        0.25450    0.00640    0.25600    1.000
    C108     C        0.15240    0.95940    0.27820    1.000
    H92      H        0.17600    0.90540    0.28210    1.000
    N7       N        0.05270    0.17540    0.26120    1.000
    N8       N        0.95790    0.07770    0.29080    1.000
    C109     C        0.88730    0.02900    0.30840    1.000
    H93      H        0.83440    0.05450    0.31270    1.000
    C110     C        0.90380    0.95060    0.31710    1.000
    H94      H        0.86210    0.91750    0.32720    1.000
    C111     C        0.98560    0.91690    0.31100    1.000
    H95      H        0.99960    0.86260    0.31880    1.000
    C112     C        0.04320    0.95990    0.29460    1.000
    C113     C        0.12570    0.93420    0.28700    1.000
    H96      H        0.14380    0.87930    0.29290    1.000
    C114     C        0.18040    0.98540    0.27150    1.000
    H97      H        0.23540    0.96520    0.26690    1.000
    C115     C        0.15770    0.06820    0.26220    1.000
    C116     C        0.20610    0.12220    0.24630    1.000
    H98      H        0.26110    0.10360    0.24080    1.000
    C117     C        0.18340    0.20290    0.23710    1.000
    H99      H        0.22120    0.23970    0.22660    1.000
    C118     C        0.09990    0.22610    0.24460    1.000
    H100     H        0.07780    0.27840    0.23760    1.000
    C119     C        0.07310    0.09580    0.27100    1.000
    C120     C        0.01880    0.04470    0.28590    1.000
    Cd3      Cd       0.71847    0.58234    0.53138    1.000
    O17      O        0.10790    0.73170    0.44186    1.000
    O18      O        0.12800    0.72890    0.37515    1.000
    H101     H        0.12450    0.75770    0.39150    1.000
    O19      O        0.21710    0.56840    0.37139    1.000
    O20      O        0.16860    0.56930    0.43311    1.000
    H102     H        0.19800    0.55340    0.41800    1.000
    O21      O        0.74150    0.61830    0.48113    1.000
    O22      O        0.71320    0.72910    0.45201    1.000
    O23      O        0.97910    0.26890    0.32791    1.000
    O24      O        0.96790    0.35740    0.28840    1.000
    N9       N        0.57850    0.55860    0.54290    1.000
    N10      N        0.69940    0.45210    0.51140    1.000
    C121     C        0.98400    0.77180    0.37355    1.000
    C122     C        0.98970    0.81820    0.40260    1.000
    H103     H        0.95230    0.86810    0.40190    1.000
    H104     H        0.04820    0.83790    0.40590    1.000
    C123     C        0.96310    0.76020    0.42933    1.000
    C124     C        0.88010    0.74920    0.43559    1.000
    H105     H        0.83930    0.78220    0.42490    1.000
    C125     C        0.85400    0.69010    0.45748    1.000
    C126     C        0.91430    0.64200    0.47279    1.000
    H106     H        0.89700    0.59930    0.48690    1.000
    C127     C        0.99800    0.65540    0.46772    1.000
    C128     C        0.06250    0.59950    0.48458    1.000
    H107     H        0.11790    0.62820    0.48460    1.000
    H108     H        0.04470    0.59220    0.50650    1.000
    C129     C        0.07240    0.51250    0.46960    1.000
    C130     C        0.02670    0.44440    0.48062    1.000
    H109     H        0.98920    0.45120    0.49770    1.000
    C131     C        0.03610    0.36670    0.46670    1.000
    H110     H        0.00490    0.31990    0.47430    1.000
    C132     C        0.08880    0.35620    0.44245    1.000
    H111     H        0.09600    0.30160    0.43370    1.000
    C133     C        0.13300    0.42390    0.42992    1.000
    C134     C        0.19060    0.41050    0.40299    1.000
    H112     H        0.20740    0.35050    0.40190    1.000
    H113     H        0.24210    0.44490    0.40560    1.000
    C135     C        0.14510    0.43600    0.37252    1.000
    C136     C        0.09040    0.38180    0.35862    1.000
    H114     H        0.08190    0.32770    0.36750    1.000
    C137     C        0.04630    0.40310    0.33166    1.000
    C138     C        0.05520    0.48300    0.32034    1.000
    H115     H        0.02160    0.50090    0.30330    1.000
    C139     C        0.11340    0.53920    0.33356    1.000
    C140     C        0.11340    0.63080    0.32113    1.000
    H116     H        0.16740    0.65810    0.32680    1.000
    H117     H        0.10980    0.62950    0.29810    1.000
    C141     C        0.04470    0.68090    0.33314    1.000
    C142     C        0.96400    0.68150    0.31910    1.000
    H118     H        0.95710    0.65290    0.29990    1.000
    C143     C        0.89480    0.72140    0.33180    1.000
    H119     H        0.84090    0.71690    0.32230    1.000
    C144     C        0.90590    0.76760    0.35850    1.000
    H120     H        0.85940    0.79760    0.36700    1.000
    C145     C        0.05160    0.72640    0.36096    1.000
    C146     C        0.15630    0.51540    0.35845    1.000
    C147     C        0.12410    0.50290    0.44441    1.000
    C148     C        0.02180    0.71630    0.44679    1.000
    C149     C        0.76290    0.67670    0.46425    1.000
    C150     C        0.99330    0.34020    0.31547    1.000
    C151     C        0.29630    0.56570    0.35540    1.000
    H121     H        0.28830    0.56930    0.33260    1.000
    H122     H        0.32730    0.51320    0.36040    1.000
    C152     C        0.34610    0.64780    0.36850    1.000
    H123     H        0.39590    0.66190    0.35560    1.000
    H124     H        0.30880    0.69760    0.37020    1.000
    C153     C        0.36960    0.61550    0.39850    1.000
    H125     H        0.34260    0.64910    0.41480    1.000
    H126     H        0.43100    0.61860    0.40090    1.000
    H127     H        0.35130    0.55670    0.40030    1.000
    C154     C        0.13780    0.80140    0.46002    1.000
    H128     H        0.13910    0.78600    0.48230    1.000
    H129     H        0.09980    0.85040    0.45750    1.000
    C155     C        0.22420    0.82330    0.44913    1.000
    H130     H        0.22260    0.83850    0.42680    1.000
    H131     H        0.26190    0.77400    0.45160    1.000
    C156     C        0.25780    0.89700    0.46800    1.000
    H132     H        0.22910    0.94890    0.46160    1.000
    H133     H        0.31850    0.90290    0.46440    1.000
    H134     H        0.24750    0.88690    0.49020    1.000
    C157     C        0.52290    0.58860    0.55650    1.000
    H135     H        0.53520    0.64330    0.56420    1.000
    C158     C        0.43980    0.56080    0.56400    1.000
    H136     H        0.39990    0.59460    0.57470    1.000
    C159     C        0.42300    0.47810    0.55380    1.000
    H137     H        0.36920    0.45430    0.55790    1.000
    C160     C        0.47890    0.43330    0.53890    1.000
    C161     C        0.56070    0.46350    0.53280    1.000
    C162     C        0.62110    0.41550    0.51580    1.000
    C163     C        0.75870    0.40520    0.49570    1.000
    H138     H        0.81370    0.42770    0.49310    1.000
    C164     C        0.74130    0.32790    0.48380    1.000
    H139     H        0.78110    0.29920    0.47120    1.000
    C165     C        0.66270    0.29140    0.49070    1.000
    H140     H        0.65240    0.23460    0.48470    1.000
    C166     C        0.60160    0.33440    0.50560    1.000
    C167     C        0.51970    0.30120    0.51250    1.000
    H141     H        0.50640    0.24550    0.50600    1.000
    C168     C        0.45940    0.34760    0.52820    1.000
    H142     H        0.40540    0.32400    0.53210    1.000
    N11      N        0.67540    0.44730    0.51120    1.000
    N12      N        0.57770    0.54210    0.54080    1.000
    C169     C        0.52900    0.61270    0.55840    1.000
    H143     H        0.55450    0.66560    0.56270    1.000
    C170     C        0.45060    0.59620    0.56710    1.000
    H144     H        0.41750    0.63790    0.57720    1.000
    C171     C        0.41690    0.51440    0.56100    1.000
    H145     H        0.36260    0.50040    0.56880    1.000
    C172     C        0.45990    0.45680    0.54460    1.000
    C173     C        0.43420    0.37430    0.53700    1.000
    H146     H        0.37930    0.35620    0.54290    1.000
    C174     C        0.48540    0.31960    0.52150    1.000
    H147     H        0.46520    0.26460    0.51690    1.000
    C175     C        0.56820    0.34230    0.51220    1.000
    C176     C        0.62220    0.29390    0.49630    1.000
    H148     H        0.60360    0.23890    0.49080    1.000
    C177     C        0.70290    0.31660    0.48710    1.000
    H149     H        0.73970    0.27880    0.47660    1.000
    C178     C        0.72610    0.40010    0.49460    1.000
    H150     H        0.77840    0.42220    0.48760    1.000
    C179     C        0.59580    0.42690    0.52100    1.000
    C180     C        0.54470    0.48120    0.53590    1.000
    Cd4      Cd       0.28153    0.41766    0.03138    1.000
    O25      O        0.89210    0.26830    0.94186    1.000
    O26      O        0.87200    0.27110    0.87515    1.000
    H151     H        0.87550    0.24230    0.89150    1.000
    O27      O        0.78290    0.43160    0.87139    1.000
    O28      O        0.83140    0.43070    0.93311    1.000
    H152     H        0.80200    0.44660    0.91800    1.000
    O29      O        0.25850    0.38170    0.98113    1.000
    O30      O        0.28680    0.27090    0.95201    1.000
    O31      O        0.02090    0.73110    0.82791    1.000
    O32      O        0.03210    0.64260    0.78840    1.000
    N13      N        0.42150    0.44140    0.04290    1.000
    N14      N        0.30060    0.54790    0.01140    1.000
    C181     C        0.01600    0.22820    0.87355    1.000
    C182     C        0.01030    0.18180    0.90260    1.000
    H153     H        0.04770    0.13190    0.90190    1.000
    H154     H        0.95180    0.16210    0.90590    1.000
    C183     C        0.03690    0.23980    0.92933    1.000
    C184     C        0.11990    0.25080    0.93559    1.000
    H155     H        0.16070    0.21780    0.92490    1.000
    C185     C        0.14600    0.30990    0.95748    1.000
    C186     C        0.08570    0.35800    0.97279    1.000
    H156     H        0.10300    0.40070    0.98690    1.000
    C187     C        0.00200    0.34460    0.96772    1.000
    C188     C        0.93750    0.40050    0.98458    1.000
    H157     H        0.88210    0.37180    0.98460    1.000
    H158     H        0.95530    0.40780    0.00650    1.000
    C189     C        0.92760    0.48750    0.96960    1.000
    C190     C        0.97330    0.55560    0.98062    1.000
    H159     H        0.01080    0.54880    0.99770    1.000
    C191     C        0.96390    0.63330    0.96670    1.000
    H160     H        0.99510    0.68010    0.97430    1.000
    C192     C        0.91120    0.64380    0.94245    1.000
    H161     H        0.90400    0.69840    0.93370    1.000
    C193     C        0.86700    0.57610    0.92992    1.000
    C194     C        0.80940    0.58950    0.90299    1.000
    H162     H        0.79260    0.64950    0.90190    1.000
    H163     H        0.75790    0.55510    0.90560    1.000
    C195     C        0.85490    0.56400    0.87252    1.000
    C196     C        0.90960    0.61820    0.85862    1.000
    H164     H        0.91810    0.67230    0.86750    1.000
    C197     C        0.95370    0.59690    0.83166    1.000
    C198     C        0.94480    0.51700    0.82034    1.000
    H165     H        0.97840    0.49910    0.80330    1.000
    C199     C        0.88660    0.46080    0.83356    1.000
    C200     C        0.88660    0.36920    0.82113    1.000
    H166     H        0.83260    0.34190    0.82680    1.000
    H167     H        0.89020    0.37050    0.79810    1.000
    C201     C        0.95530    0.31910    0.83314    1.000
    C202     C        0.03600    0.31850    0.81910    1.000
    H168     H        0.04290    0.34710    0.79990    1.000
    C203     C        0.10520    0.27860    0.83180    1.000
    H169     H        0.15910    0.28310    0.82230    1.000
    C204     C        0.09410    0.23240    0.85850    1.000
    H170     H        0.14060    0.20240    0.86700    1.000
    C205     C        0.94840    0.27360    0.86096    1.000
    C206     C        0.84370    0.48460    0.85845    1.000
    C207     C        0.87590    0.49710    0.94441    1.000
    C208     C        0.97820    0.28370    0.94679    1.000
    C209     C        0.23710    0.32330    0.96425    1.000
    C210     C        0.00670    0.65980    0.81547    1.000
    C211     C        0.70370    0.43430    0.85540    1.000
    H171     H        0.71170    0.43070    0.83260    1.000
    H172     H        0.67270    0.48680    0.86040    1.000
    C212     C        0.65390    0.35220    0.86850    1.000
    H173     H        0.60410    0.33810    0.85560    1.000
    H174     H        0.69120    0.30240    0.87020    1.000
    C213     C        0.63040    0.38450    0.89850    1.000
    H175     H        0.65740    0.35090    0.91480    1.000
    H176     H        0.56900    0.38140    0.90090    1.000
    H177     H        0.64870    0.44330    0.90030    1.000
    C214     C        0.86220    0.19860    0.96002    1.000
    H178     H        0.86090    0.21400    0.98230    1.000
    H179     H        0.90020    0.14960    0.95750    1.000
    C215     C        0.77580    0.17670    0.94913    1.000
    H180     H        0.77740    0.16150    0.92680    1.000
    H181     H        0.73810    0.22600    0.95160    1.000
    C216     C        0.74220    0.10300    0.96800    1.000
    H182     H        0.77090    0.05110    0.96160    1.000
    H183     H        0.68150    0.09710    0.96440    1.000
    H184     H        0.75250    0.11310    0.99020    1.000
    C217     C        0.47710    0.41140    0.05650    1.000
    H185     H        0.46480    0.35670    0.06420    1.000
    C218     C        0.56020    0.43920    0.06400    1.000
    H186     H        0.60010    0.40540    0.07470    1.000
    C219     C        0.57700    0.52190    0.05380    1.000
    H187     H        0.63080    0.54570    0.05790    1.000
    C220     C        0.52110    0.56670    0.03890    1.000
    C221     C        0.43930    0.53650    0.03280    1.000
    C222     C        0.37890    0.58450    0.01580    1.000
    C223     C        0.24130    0.59480    0.99570    1.000
    H188     H        0.18630    0.57230    0.99310    1.000
    C224     C        0.25870    0.67210    0.98380    1.000
    H189     H        0.21890    0.70080    0.97120    1.000
    C225     C        0.33730    0.70860    0.99070    1.000
    H190     H        0.34760    0.76540    0.98470    1.000
    C226     C        0.39840    0.66560    0.00560    1.000
    C227     C        0.48030    0.69880    0.01250    1.000
    H191     H        0.49360    0.75450    0.00600    1.000
    C228     C        0.54060    0.65240    0.02820    1.000
    H192     H        0.59460    0.67600    0.03210    1.000
    N15      N        0.32460    0.55270    0.01120    1.000
    N16      N        0.42230    0.45790    0.04080    1.000
    C229     C        0.47100    0.38730    0.05840    1.000
    H193     H        0.44550    0.33440    0.06270    1.000
    C230     C        0.54940    0.40380    0.06710    1.000
    H194     H        0.58250    0.36210    0.07720    1.000
    C231     C        0.58310    0.48560    0.06100    1.000
    H195     H        0.63740    0.49960    0.06880    1.000
    C232     C        0.54010    0.54320    0.04460    1.000
    C233     C        0.56580    0.62570    0.03700    1.000
    H196     H        0.62070    0.64380    0.04290    1.000
    C234     C        0.51460    0.68040    0.02150    1.000
    H197     H        0.53480    0.73540    0.01690    1.000
    C235     C        0.43180    0.65770    0.01220    1.000
    C236     C        0.37780    0.70610    0.99630    1.000
    H198     H        0.39640    0.76110    0.99080    1.000
    C237     C        0.29710    0.68340    0.98710    1.000
    H199     H        0.26030    0.72120    0.97660    1.000
    C238     C        0.27390    0.59990    0.99460    1.000
    H200     H        0.22160    0.57780    0.98760    1.000
    C239     C        0.40420    0.57310    0.02100    1.000
    C240     C        0.45530    0.51880    0.03590    1.000
    Cd5      Cd       0.41766    0.28153    0.96862    1.000
    O33      O        0.26830    0.89210    0.05814    1.000
    O34      O        0.27110    0.87200    0.12485    1.000
    H201     H        0.24230    0.87550    0.10850    1.000
    O35      O        0.43160    0.78290    0.12861    1.000
    O36      O        0.43070    0.83140    0.06689    1.000
    H202     H        0.44660    0.80200    0.08200    1.000
    O37      O        0.38170    0.25850    0.01887    1.000
    O38      O        0.27090    0.28680    0.04799    1.000
    O39      O        0.73110    0.02090    0.17209    1.000
    O40      O        0.64260    0.03210    0.21160    1.000
    N17      N        0.44140    0.42150    0.95710    1.000
    N18      N        0.54790    0.30060    0.98860    1.000
    C241     C        0.22820    0.01600    0.12645    1.000
    C242     C        0.18180    0.01030    0.09740    1.000
    H203     H        0.13190    0.04770    0.09810    1.000
    H204     H        0.16210    0.95180    0.09410    1.000
    C243     C        0.23980    0.03690    0.07067    1.000
    C244     C        0.25080    0.11990    0.06441    1.000
    H205     H        0.21780    0.16070    0.07510    1.000
    C245     C        0.30990    0.14600    0.04252    1.000
    C246     C        0.35800    0.08570    0.02721    1.000
    H206     H        0.40070    0.10300    0.01310    1.000
    C247     C        0.34460    0.00200    0.03228    1.000
    C248     C        0.40050    0.93750    0.01542    1.000
    H207     H        0.37180    0.88210    0.01540    1.000
    H208     H        0.40780    0.95530    0.99350    1.000
    C249     C        0.48750    0.92760    0.03040    1.000
    C250     C        0.55560    0.97330    0.01938    1.000
    H209     H        0.54880    0.01080    0.00230    1.000
    C251     C        0.63330    0.96390    0.03330    1.000
    H210     H        0.68010    0.99510    0.02570    1.000
    C252     C        0.64380    0.91120    0.05755    1.000
    H211     H        0.69840    0.90400    0.06630    1.000
    C253     C        0.57610    0.86700    0.07008    1.000
    C254     C        0.58950    0.80940    0.09701    1.000
    H212     H        0.64950    0.79260    0.09810    1.000
    H213     H        0.55510    0.75790    0.09440    1.000
    C255     C        0.56400    0.85490    0.12748    1.000
    C256     C        0.61820    0.90960    0.14138    1.000
    H214     H        0.67230    0.91810    0.13250    1.000
    C257     C        0.59690    0.95370    0.16834    1.000
    C258     C        0.51700    0.94480    0.17966    1.000
    H215     H        0.49910    0.97840    0.19670    1.000
    C259     C        0.46080    0.88660    0.16644    1.000
    C260     C        0.36920    0.88660    0.17887    1.000
    H216     H        0.34190    0.83260    0.17320    1.000
    H217     H        0.37050    0.89020    0.20190    1.000
    C261     C        0.31910    0.95530    0.16686    1.000
    C262     C        0.31850    0.03600    0.18090    1.000
    H218     H        0.34710    0.04290    0.20010    1.000
    C263     C        0.27860    0.10520    0.16820    1.000
    H219     H        0.28310    0.15910    0.17770    1.000
    C264     C        0.23240    0.09410    0.14150    1.000
    H220     H        0.20240    0.14060    0.13300    1.000
    C265     C        0.27360    0.94840    0.13904    1.000
    C266     C        0.48460    0.84370    0.14155    1.000
    C267     C        0.49710    0.87590    0.05559    1.000
    C268     C        0.28370    0.97820    0.05321    1.000
    C269     C        0.32330    0.23710    0.03575    1.000
    C270     C        0.65980    0.00670    0.18453    1.000
    C271     C        0.43430    0.70370    0.14460    1.000
    H221     H        0.43070    0.71170    0.16740    1.000
    H222     H        0.48680    0.67270    0.13960    1.000
    C272     C        0.35220    0.65390    0.13150    1.000
    H223     H        0.33810    0.60410    0.14440    1.000
    H224     H        0.30240    0.69120    0.12980    1.000
    C273     C        0.38450    0.63040    0.10150    1.000
    H225     H        0.35090    0.65740    0.08520    1.000
    H226     H        0.38140    0.56900    0.09910    1.000
    H227     H        0.44330    0.64870    0.09970    1.000
    C274     C        0.19860    0.86220    0.03998    1.000
    H228     H        0.21400    0.86090    0.01770    1.000
    H229     H        0.14960    0.90020    0.04250    1.000
    C275     C        0.17670    0.77580    0.05087    1.000
    H230     H        0.16150    0.77740    0.07320    1.000
    H231     H        0.22600    0.73810    0.04840    1.000
    C276     C        0.10300    0.74220    0.03200    1.000
    H232     H        0.05110    0.77090    0.03840    1.000
    H233     H        0.09710    0.68150    0.03560    1.000
    H234     H        0.11310    0.75250    0.00980    1.000
    C277     C        0.41140    0.47710    0.94350    1.000
    H235     H        0.35670    0.46480    0.93580    1.000
    C278     C        0.43920    0.56020    0.93600    1.000
    H236     H        0.40540    0.60010    0.92530    1.000
    C279     C        0.52190    0.57700    0.94620    1.000
    H237     H        0.54570    0.63080    0.94210    1.000
    C280     C        0.56670    0.52110    0.96110    1.000
    C281     C        0.53650    0.43930    0.96720    1.000
    C282     C        0.58450    0.37890    0.98420    1.000
    C283     C        0.59480    0.24130    0.00430    1.000
    H238     H        0.57230    0.18630    0.00690    1.000
    C284     C        0.67210    0.25870    0.01620    1.000
    H239     H        0.70080    0.21890    0.02880    1.000
    C285     C        0.70860    0.33730    0.00930    1.000
    H240     H        0.76540    0.34760    0.01530    1.000
    C286     C        0.66560    0.39840    0.99440    1.000
    C287     C        0.69880    0.48030    0.98750    1.000
    H241     H        0.75450    0.49360    0.99400    1.000
    C288     C        0.65240    0.54060    0.97180    1.000
    H242     H        0.67600    0.59460    0.96790    1.000
    N19      N        0.55270    0.32460    0.98880    1.000
    N20      N        0.45790    0.42230    0.95920    1.000
    C289     C        0.38730    0.47100    0.94160    1.000
    H243     H        0.33440    0.44550    0.93730    1.000
    C290     C        0.40380    0.54940    0.93290    1.000
    H244     H        0.36210    0.58250    0.92280    1.000
    C291     C        0.48560    0.58310    0.93900    1.000
    H245     H        0.49960    0.63740    0.93120    1.000
    C292     C        0.54320    0.54010    0.95540    1.000
    C293     C        0.62570    0.56580    0.96300    1.000
    H246     H        0.64380    0.62070    0.95710    1.000
    C294     C        0.68040    0.51460    0.97850    1.000
    H247     H        0.73540    0.53480    0.98310    1.000
    C295     C        0.65770    0.43180    0.98780    1.000
    C296     C        0.70610    0.37780    0.00370    1.000
    H248     H        0.76110    0.39640    0.00920    1.000
    C297     C        0.68340    0.29710    0.01290    1.000
    H249     H        0.72120    0.26030    0.02340    1.000
    C298     C        0.59990    0.27390    0.00540    1.000
    H250     H        0.57780    0.22160    0.01240    1.000
    C299     C        0.57310    0.40420    0.97900    1.000
    C300     C        0.51880    0.45530    0.96410    1.000
    Cd6      Cd       0.58234    0.71847    0.46862    1.000
    O41      O        0.73170    0.10790    0.55814    1.000
    O42      O        0.72890    0.12800    0.62485    1.000
    H251     H        0.75770    0.12450    0.60850    1.000
    O43      O        0.56840    0.21710    0.62861    1.000
    O44      O        0.56930    0.16860    0.56689    1.000
    H252     H        0.55340    0.19800    0.58200    1.000
    O45      O        0.61830    0.74150    0.51887    1.000
    O46      O        0.72910    0.71320    0.54799    1.000
    O47      O        0.26890    0.97910    0.67209    1.000
    O48      O        0.35740    0.96790    0.71160    1.000
    N21      N        0.55860    0.57850    0.45710    1.000
    N22      N        0.45210    0.69940    0.48860    1.000
    C301     C        0.77180    0.98400    0.62645    1.000
    C302     C        0.81820    0.98970    0.59740    1.000
    H253     H        0.86810    0.95230    0.59810    1.000
    H254     H        0.83790    0.04820    0.59410    1.000
    C303     C        0.76020    0.96310    0.57067    1.000
    C304     C        0.74920    0.88010    0.56441    1.000
    H255     H        0.78220    0.83930    0.57510    1.000
    C305     C        0.69010    0.85400    0.54252    1.000
    C306     C        0.64200    0.91430    0.52721    1.000
    H256     H        0.59930    0.89700    0.51310    1.000
    C307     C        0.65540    0.99800    0.53228    1.000
    C308     C        0.59950    0.06250    0.51542    1.000
    H257     H        0.62820    0.11790    0.51540    1.000
    H258     H        0.59220    0.04470    0.49350    1.000
    C309     C        0.51250    0.07240    0.53040    1.000
    C310     C        0.44440    0.02670    0.51938    1.000
    H259     H        0.45120    0.98920    0.50230    1.000
    C311     C        0.36670    0.03610    0.53330    1.000
    H260     H        0.31990    0.00490    0.52570    1.000
    C312     C        0.35620    0.08880    0.55755    1.000
    H261     H        0.30160    0.09600    0.56630    1.000
    C313     C        0.42390    0.13300    0.57008    1.000
    C314     C        0.41050    0.19060    0.59701    1.000
    H262     H        0.35050    0.20740    0.59810    1.000
    H263     H        0.44490    0.24210    0.59440    1.000
    C315     C        0.43600    0.14510    0.62748    1.000
    C316     C        0.38180    0.09040    0.64138    1.000
    H264     H        0.32770    0.08190    0.63250    1.000
    C317     C        0.40310    0.04630    0.66834    1.000
    C318     C        0.48300    0.05520    0.67966    1.000
    H265     H        0.50090    0.02160    0.69670    1.000
    C319     C        0.53920    0.11340    0.66644    1.000
    C320     C        0.63080    0.11340    0.67887    1.000
    H266     H        0.65810    0.16740    0.67320    1.000
    H267     H        0.62950    0.10980    0.70190    1.000
    C321     C        0.68090    0.04470    0.66686    1.000
    C322     C        0.68150    0.96400    0.68090    1.000
    H268     H        0.65290    0.95710    0.70010    1.000
    C323     C        0.72140    0.89480    0.66820    1.000
    H269     H        0.71690    0.84090    0.67770    1.000
    C324     C        0.76760    0.90590    0.64150    1.000
    H270     H        0.79760    0.85940    0.63300    1.000
    C325     C        0.72640    0.05160    0.63904    1.000
    C326     C        0.51540    0.15630    0.64155    1.000
    C327     C        0.50290    0.12410    0.55559    1.000
    C328     C        0.71630    0.02180    0.55321    1.000
    C329     C        0.67670    0.76290    0.53575    1.000
    C330     C        0.34020    0.99330    0.68453    1.000
    C331     C        0.56570    0.29630    0.64460    1.000
    H271     H        0.56930    0.28830    0.66740    1.000
    H272     H        0.51320    0.32730    0.63960    1.000
    C332     C        0.64780    0.34610    0.63150    1.000
    H273     H        0.66190    0.39590    0.64440    1.000
    H274     H        0.69760    0.30880    0.62980    1.000
    C333     C        0.61550    0.36960    0.60150    1.000
    H275     H        0.64910    0.34260    0.58520    1.000
    H276     H        0.61860    0.43100    0.59910    1.000
    H277     H        0.55670    0.35130    0.59970    1.000
    C334     C        0.80140    0.13780    0.53998    1.000
    H278     H        0.78600    0.13910    0.51770    1.000
    H279     H        0.85040    0.09980    0.54250    1.000
    C335     C        0.82330    0.22420    0.55087    1.000
    H280     H        0.83850    0.22260    0.57320    1.000
    H281     H        0.77400    0.26190    0.54840    1.000
    C336     C        0.89700    0.25780    0.53200    1.000
    H282     H        0.94890    0.22910    0.53840    1.000
    H283     H        0.90290    0.31850    0.53560    1.000
    H284     H        0.88690    0.24750    0.50980    1.000
    C337     C        0.58860    0.52290    0.44350    1.000
    H285     H        0.64330    0.53520    0.43580    1.000
    C338     C        0.56080    0.43980    0.43600    1.000
    H286     H        0.59460    0.39990    0.42530    1.000
    C339     C        0.47810    0.42300    0.44620    1.000
    H287     H        0.45430    0.36920    0.44210    1.000
    C340     C        0.43330    0.47890    0.46110    1.000
    C341     C        0.46350    0.56070    0.46720    1.000
    C342     C        0.41550    0.62110    0.48420    1.000
    C343     C        0.40520    0.75870    0.50430    1.000
    H288     H        0.42770    0.81370    0.50690    1.000
    C344     C        0.32790    0.74130    0.51620    1.000
    H289     H        0.29920    0.78110    0.52880    1.000
    C345     C        0.29140    0.66270    0.50930    1.000
    H290     H        0.23460    0.65240    0.51530    1.000
    C346     C        0.33440    0.60160    0.49440    1.000
    C347     C        0.30120    0.51970    0.48750    1.000
    H291     H        0.24550    0.50640    0.49400    1.000
    C348     C        0.34760    0.45940    0.47180    1.000
    H292     H        0.32400    0.40540    0.46790    1.000
    N23      N        0.44730    0.67540    0.48880    1.000
    N24      N        0.54210    0.57770    0.45920    1.000
    C349     C        0.61270    0.52900    0.44160    1.000
    H293     H        0.66560    0.55450    0.43730    1.000
    C350     C        0.59620    0.45060    0.43290    1.000
    H294     H        0.63790    0.41750    0.42280    1.000
    C351     C        0.51440    0.41690    0.43900    1.000
    H295     H        0.50040    0.36260    0.43120    1.000
    C352     C        0.45680    0.45990    0.45540    1.000
    C353     C        0.37430    0.43420    0.46300    1.000
    H296     H        0.35620    0.37930    0.45710    1.000
    C354     C        0.31960    0.48540    0.47850    1.000
    H297     H        0.26460    0.46520    0.48310    1.000
    C355     C        0.34230    0.56820    0.48780    1.000
    C356     C        0.29390    0.62220    0.50370    1.000
    H298     H        0.23890    0.60360    0.50920    1.000
    C357     C        0.31660    0.70290    0.51290    1.000
    H299     H        0.27880    0.73970    0.52340    1.000
    C358     C        0.40010    0.72610    0.50540    1.000
    H300     H        0.42220    0.77840    0.51240    1.000
    C359     C        0.42690    0.59580    0.47900    1.000
    C360     C        0.48120    0.54470    0.46410    1.000
    Cd7      Cd       0.78153    0.08234    0.21862    1.000
    O49      O        0.39210    0.23170    0.30814    1.000
    O50      O        0.37200    0.22890    0.37485    1.000
    H301     H        0.37550    0.25770    0.35850    1.000
    O51      O        0.28290    0.06840    0.37861    1.000
    O52      O        0.33140    0.06930    0.31689    1.000
    H302     H        0.30200    0.05340    0.33200    1.000
    O53      O        0.75850    0.11830    0.26887    1.000
    O54      O        0.78680    0.22910    0.29799    1.000
    O55      O        0.52090    0.76890    0.42209    1.000
    O56      O        0.53210    0.85740    0.46160    1.000
    N25      N        0.92150    0.05860    0.20710    1.000
    N26      N        0.80060    0.95210    0.23860    1.000
    C361     C        0.51600    0.27180    0.37645    1.000
    C362     C        0.51030    0.31820    0.34740    1.000
    H303     H        0.54770    0.36810    0.34810    1.000
    H304     H        0.45180    0.33790    0.34410    1.000
    C363     C        0.53690    0.26020    0.32067    1.000
    C364     C        0.61990    0.24920    0.31441    1.000
    H305     H        0.66070    0.28220    0.32510    1.000
    C365     C        0.64600    0.19010    0.29252    1.000
    C366     C        0.58570    0.14200    0.27721    1.000
    H306     H        0.60300    0.09930    0.26310    1.000
    C367     C        0.50200    0.15540    0.28228    1.000
    C368     C        0.43750    0.09950    0.26542    1.000
    H307     H        0.38210    0.12820    0.26540    1.000
    H308     H        0.45530    0.09220    0.24350    1.000
    C369     C        0.42760    0.01250    0.28040    1.000
    C370     C        0.47330    0.94440    0.26938    1.000
    H309     H        0.51080    0.95120    0.25230    1.000
    C371     C        0.46390    0.86670    0.28330    1.000
    H310     H        0.49510    0.81990    0.27570    1.000
    C372     C        0.41120    0.85620    0.30755    1.000
    H311     H        0.40400    0.80160    0.31630    1.000
    C373     C        0.36700    0.92390    0.32008    1.000
    C374     C        0.30940    0.91050    0.34701    1.000
    H312     H        0.29260    0.85050    0.34810    1.000
    H313     H        0.25790    0.94490    0.34440    1.000
    C375     C        0.35490    0.93600    0.37748    1.000
    C376     C        0.40960    0.88180    0.39138    1.000
    H314     H        0.41810    0.82770    0.38250    1.000
    C377     C        0.45370    0.90310    0.41834    1.000
    C378     C        0.44480    0.98300    0.42966    1.000
    H315     H        0.47840    0.00090    0.44670    1.000
    C379     C        0.38660    0.03920    0.41644    1.000
    C380     C        0.38660    0.13080    0.42887    1.000
    H316     H        0.33260    0.15810    0.42320    1.000
    H317     H        0.39020    0.12950    0.45190    1.000
    C381     C        0.45530    0.18090    0.41686    1.000
    C382     C        0.53600    0.18150    0.43090    1.000
    H318     H        0.54290    0.15290    0.45010    1.000
    C383     C        0.60520    0.22140    0.41820    1.000
    H319     H        0.65910    0.21690    0.42770    1.000
    C384     C        0.59410    0.26760    0.39150    1.000
    H320     H        0.64060    0.29760    0.38300    1.000
    C385     C        0.44840    0.22640    0.38904    1.000
    C386     C        0.34370    0.01540    0.39155    1.000
    C387     C        0.37590    0.00290    0.30559    1.000
    C388     C        0.47820    0.21630    0.30321    1.000
    C389     C        0.73710    0.17670    0.28575    1.000
    C390     C        0.50670    0.84020    0.43453    1.000
    C391     C        0.20370    0.06570    0.39460    1.000
    H321     H        0.21170    0.06930    0.41740    1.000
    H322     H        0.17270    0.01320    0.38960    1.000
    C392     C        0.15390    0.14780    0.38150    1.000
    H323     H        0.10410    0.16190    0.39440    1.000
    H324     H        0.19120    0.19760    0.37980    1.000
    C393     C        0.13040    0.11550    0.35150    1.000
    H325     H        0.15740    0.14910    0.33520    1.000
    H326     H        0.06900    0.11860    0.34910    1.000
    H327     H        0.14870    0.05670    0.34970    1.000
    C394     C        0.36220    0.30140    0.28998    1.000
    H328     H        0.36090    0.28600    0.26770    1.000
    H329     H        0.40020    0.35040    0.29250    1.000
    C395     C        0.27580    0.32330    0.30087    1.000
    H330     H        0.27740    0.33850    0.32320    1.000
    H331     H        0.23810    0.27400    0.29840    1.000
    C396     C        0.24220    0.39700    0.28200    1.000
    H332     H        0.27090    0.44890    0.28840    1.000
    H333     H        0.18150    0.40290    0.28560    1.000
    H334     H        0.25250    0.38690    0.25980    1.000
    C397     C        0.97710    0.08860    0.19350    1.000
    H335     H        0.96480    0.14330    0.18580    1.000
    C398     C        0.06020    0.06080    0.18600    1.000
    H336     H        0.10010    0.09460    0.17530    1.000
    C399     C        0.07700    0.97810    0.19620    1.000
    H337     H        0.13080    0.95430    0.19210    1.000
    C400     C        0.02110    0.93330    0.21110    1.000
    C401     C        0.93930    0.96350    0.21720    1.000
    C402     C        0.87890    0.91550    0.23420    1.000
    C403     C        0.74130    0.90520    0.25430    1.000
    H338     H        0.68630    0.92770    0.25690    1.000
    C404     C        0.75870    0.82790    0.26620    1.000
    H339     H        0.71890    0.79920    0.27880    1.000
    C405     C        0.83730    0.79140    0.25930    1.000
    H340     H        0.84760    0.73460    0.26530    1.000
    C406     C        0.89840    0.83440    0.24440    1.000
    C407     C        0.98030    0.80120    0.23750    1.000
    H341     H        0.99360    0.74550    0.24400    1.000
    C408     C        0.04060    0.84760    0.22180    1.000
    H342     H        0.09460    0.82400    0.21790    1.000
    N27      N        0.82460    0.94730    0.23880    1.000
    N28      N        0.92230    0.04210    0.20920    1.000
    C409     C        0.97100    0.11270    0.19160    1.000
    H343     H        0.94550    0.16560    0.18730    1.000
    C410     C        0.04940    0.09620    0.18290    1.000
    H344     H        0.08250    0.13790    0.17280    1.000
    C411     C        0.08310    0.01440    0.18900    1.000
    H345     H        0.13740    0.00040    0.18120    1.000
    C412     C        0.04010    0.95680    0.20540    1.000
    C413     C        0.06580    0.87430    0.21300    1.000
    H346     H        0.12070    0.85620    0.20710    1.000
    C414     C        0.01460    0.81960    0.22850    1.000
    H347     H        0.03480    0.76460    0.23310    1.000
    C415     C        0.93180    0.84230    0.23780    1.000
    C416     C        0.87780    0.79390    0.25370    1.000
    H348     H        0.89640    0.73890    0.25920    1.000
    C417     C        0.79710    0.81660    0.26290    1.000
    H349     H        0.76030    0.77880    0.27340    1.000
    C418     C        0.77390    0.90010    0.25540    1.000
    H350     H        0.72160    0.92220    0.26240    1.000
    C419     C        0.90420    0.92690    0.22900    1.000
    C420     C        0.95530    0.98120    0.21410    1.000
    Cd8      Cd       0.21847    0.91766    0.71862    1.000
    O57      O        0.60790    0.76830    0.80814    1.000
    O58      O        0.62800    0.77110    0.87485    1.000
    H351     H        0.62450    0.74230    0.85850    1.000
    O59      O        0.71710    0.93160    0.87861    1.000
    O60      O        0.66860    0.93070    0.81689    1.000
    H352     H        0.69800    0.94660    0.83200    1.000
    O61      O        0.24150    0.88170    0.76887    1.000
    O62      O        0.21320    0.77090    0.79799    1.000
    O63      O        0.47910    0.23110    0.92209    1.000
    O64      O        0.46790    0.14260    0.96160    1.000
    N29      N        0.07850    0.94140    0.70710    1.000
    N30      N        0.19940    0.04790    0.73860    1.000
    C421     C        0.48400    0.72820    0.87645    1.000
    C422     C        0.48970    0.68180    0.84740    1.000
    H353     H        0.45230    0.63190    0.84810    1.000
    H354     H        0.54820    0.66210    0.84410    1.000
    C423     C        0.46310    0.73980    0.82067    1.000
    C424     C        0.38010    0.75080    0.81441    1.000
    H355     H        0.33930    0.71780    0.82510    1.000
    C425     C        0.35400    0.80990    0.79252    1.000
    C426     C        0.41430    0.85800    0.77721    1.000
    H356     H        0.39700    0.90070    0.76310    1.000
    C427     C        0.49800    0.84460    0.78228    1.000
    C428     C        0.56250    0.90050    0.76542    1.000
    H357     H        0.61790    0.87180    0.76540    1.000
    H358     H        0.54470    0.90780    0.74350    1.000
    C429     C        0.57240    0.98750    0.78040    1.000
    C430     C        0.52670    0.05560    0.76938    1.000
    H359     H        0.48920    0.04880    0.75230    1.000
    C431     C        0.53610    0.13330    0.78330    1.000
    H360     H        0.50490    0.18010    0.77570    1.000
    C432     C        0.58880    0.14380    0.80755    1.000
    H361     H        0.59600    0.19840    0.81630    1.000
    C433     C        0.63300    0.07610    0.82008    1.000
    C434     C        0.69060    0.08950    0.84701    1.000
    H362     H        0.70740    0.14950    0.84810    1.000
    H363     H        0.74210    0.05510    0.84440    1.000
    C435     C        0.64510    0.06400    0.87748    1.000
    C436     C        0.59040    0.11820    0.89138    1.000
    H364     H        0.58190    0.17230    0.88250    1.000
    C437     C        0.54630    0.09690    0.91834    1.000
    C438     C        0.55520    0.01700    0.92966    1.000
    H365     H        0.52160    0.99910    0.94670    1.000
    C439     C        0.61340    0.96080    0.91644    1.000
    C440     C        0.61340    0.86920    0.92887    1.000
    H366     H        0.66740    0.84190    0.92320    1.000
    H367     H        0.60980    0.87050    0.95190    1.000
    C441     C        0.54470    0.81910    0.91686    1.000
    C442     C        0.46400    0.81850    0.93090    1.000
    H368     H        0.45710    0.84710    0.95010    1.000
    C443     C        0.39480    0.77860    0.91820    1.000
    H369     H        0.34090    0.78310    0.92770    1.000
    C444     C        0.40590    0.73240    0.89150    1.000
    H370     H        0.35940    0.70240    0.88300    1.000
    C445     C        0.55160    0.77360    0.88904    1.000
    C446     C        0.65630    0.98460    0.89155    1.000
    C447     C        0.62410    0.99710    0.80559    1.000
    C448     C        0.52180    0.78370    0.80321    1.000
    C449     C        0.26290    0.82330    0.78575    1.000
    C450     C        0.49330    0.15980    0.93453    1.000
    C451     C        0.79630    0.93430    0.89460    1.000
    H371     H        0.78830    0.93070    0.91740    1.000
    H372     H        0.82730    0.98680    0.88960    1.000
    C452     C        0.84610    0.85220    0.88150    1.000
    H373     H        0.89590    0.83810    0.89440    1.000
    H374     H        0.80880    0.80240    0.87980    1.000
    C453     C        0.86960    0.88450    0.85150    1.000
    H375     H        0.84260    0.85090    0.83520    1.000
    H376     H        0.93100    0.88140    0.84910    1.000
    H377     H        0.85130    0.94330    0.84970    1.000
    C454     C        0.63780    0.69860    0.78998    1.000
    H378     H        0.63910    0.71400    0.76770    1.000
    H379     H        0.59980    0.64960    0.79250    1.000
    C455     C        0.72420    0.67670    0.80087    1.000
    H380     H        0.72260    0.66150    0.82320    1.000
    H381     H        0.76190    0.72600    0.79840    1.000
    C456     C        0.75780    0.60300    0.78200    1.000
    H382     H        0.72910    0.55110    0.78840    1.000
    H383     H        0.81850    0.59710    0.78560    1.000
    H384     H        0.74750    0.61310    0.75980    1.000
    C457     C        0.02290    0.91140    0.69350    1.000
    H385     H        0.03520    0.85670    0.68580    1.000
    C458     C        0.93980    0.93920    0.68600    1.000
    H386     H        0.89990    0.90540    0.67530    1.000
    C459     C        0.92300    0.02190    0.69620    1.000
    H387     H        0.86920    0.04570    0.69210    1.000
    C460     C        0.97890    0.06670    0.71110    1.000
    C461     C        0.06070    0.03650    0.71720    1.000
    C462     C        0.12110    0.08450    0.73420    1.000
    C463     C        0.25870    0.09480    0.75430    1.000
    H388     H        0.31370    0.07230    0.75690    1.000
    C464     C        0.24130    0.17210    0.76620    1.000
    H389     H        0.28110    0.20080    0.77880    1.000
    C465     C        0.16270    0.20860    0.75930    1.000
    H390     H        0.15240    0.26540    0.76530    1.000
    C466     C        0.10160    0.16560    0.74440    1.000
    C467     C        0.01970    0.19880    0.73750    1.000
    H391     H        0.00640    0.25450    0.74400    1.000
    C468     C        0.95940    0.15240    0.72180    1.000
    H392     H        0.90540    0.17600    0.71790    1.000
    N31      N        0.17540    0.05270    0.73880    1.000
    N32      N        0.07770    0.95790    0.70920    1.000
    C469     C        0.02900    0.88730    0.69160    1.000
    H393     H        0.05450    0.83440    0.68730    1.000
    C470     C        0.95060    0.90380    0.68290    1.000
    H394     H        0.91750    0.86210    0.67280    1.000
    C471     C        0.91690    0.98560    0.68900    1.000
    H395     H        0.86260    0.99960    0.68120    1.000
    C472     C        0.95990    0.04320    0.70540    1.000
    C473     C        0.93420    0.12570    0.71300    1.000
    H396     H        0.87930    0.14380    0.70710    1.000
    C474     C        0.98540    0.18040    0.72850    1.000
    H397     H        0.96520    0.23540    0.73310    1.000
    C475     C        0.06820    0.15770    0.73780    1.000
    C476     C        0.12220    0.20610    0.75370    1.000
    H398     H        0.10360    0.26110    0.75920    1.000
    C477     C        0.20290    0.18340    0.76290    1.000
    H399     H        0.23970    0.22120    0.77340    1.000
    C478     C        0.22610    0.09990    0.75540    1.000
    H400     H        0.27840    0.07780    0.76240    1.000
    C479     C        0.09580    0.07310    0.72900    1.000
    C480     C        0.04470    0.01880    0.71410    1.000
