# CIF file generated by openbabel 3.1.0, see https://openbabel.org
data_I
_chemical_name_common 'image0'
_cell_length_a 7.3888
_cell_length_b 7.3888
_cell_length_c 22.1438
_cell_angle_alpha 90
_cell_angle_beta 90
_cell_angle_gamma 90
_space_group_name_H-M_alt 'P 1'
_space_group_name_Hall 'P 1'
loop_
    _symmetry_equiv_pos_as_xyz
    x,y,z
loop_
    _atom_site_label
    _atom_site_type_symbol
    _atom_site_fract_x
    _atom_site_fract_y
    _atom_site_fract_z
    _atom_site_occupancy
    F1       F        0.81150    0.93410    0.94124    1.000
    C1       C        0.65300    0.96260    0.96889    1.000
    F2       F        0.18850    0.06590    0.94124    1.000
    C2       C        0.34700    0.03740    0.96889    1.000
    F3       F        0.06590    0.81150    0.44124    1.000
    C3       C        0.03740    0.65300    0.46889    1.000
    F4       F        0.93410    0.18850    0.44124    1.000
    C4       C        0.96260    0.34700    0.46889    1.000
    F5       F        0.18850    0.93410    0.05876    1.000
    C5       C        0.34700    0.96260    0.03111    1.000
    F6       F        0.81150    0.06590    0.05876    1.000
    C6       C        0.65300    0.03740    0.03111    1.000
    F7       F        0.93410    0.81150    0.55876    1.000
    C7       C        0.96260    0.65300    0.53111    1.000
    F8       F        0.06590    0.18850    0.55876    1.000
    C8       C        0.03740    0.34700    0.53111    1.000
    F9       F        0.18850    0.06590    0.05876    1.000
    C9       C        0.34700    0.03740    0.03111    1.000
    F10      F        0.81150    0.93410    0.05876    1.000
    C10      C        0.65300    0.96260    0.03111    1.000
    F11      F        0.93410    0.18850    0.55876    1.000
    C11      C        0.96260    0.34700    0.53111    1.000
    F12      F        0.06590    0.81150    0.55876    1.000
    C12      C        0.03740    0.65300    0.53111    1.000
    F13      F        0.81150    0.06590    0.94124    1.000
    C13      C        0.65300    0.03740    0.96889    1.000
    F14      F        0.18850    0.93410    0.94124    1.000
    C14      C        0.34700    0.96260    0.96889    1.000
    F15      F        0.06590    0.18850    0.44124    1.000
    C15      C        0.03740    0.34700    0.46889    1.000
    F16      F        0.93410    0.81150    0.44124    1.000
    C16      C        0.96260    0.65300    0.46889    1.000
    Cu1      Cu       0.00000    0.00000    0.75000    1.000
    Cu2      Cu       0.00000    0.00000    0.25000    1.000
    N1       N        0.78400    0.00000    0.80295    1.000
    C17      C        0.65880    0.00000    0.83381    1.000
    N2       N        0.21600    0.00000    0.80295    1.000
    C18      C        0.34120    0.00000    0.83381    1.000
    N3       N        0.00000    0.78400    0.30295    1.000
    C19      C        0.00000    0.65880    0.33381    1.000
    N4       N        0.00000    0.21600    0.30295    1.000
    C20      C        0.00000    0.34120    0.33381    1.000
    N5       N        0.21600    0.00000    0.19705    1.000
    C21      C        0.34120    0.00000    0.16619    1.000
    N6       N        0.78400    0.00000    0.19705    1.000
    C22      C        0.65880    0.00000    0.16619    1.000
    N7       N        0.00000    0.78400    0.69705    1.000
    C23      C        0.00000    0.65880    0.66619    1.000
    N8       N        0.00000    0.21600    0.69705    1.000
    C24      C        0.00000    0.34120    0.66619    1.000
    C25      C        0.50000    0.00000    0.86800    1.000
    C26      C        0.50000    0.00000    0.93450    1.000
    C27      C        0.00000    0.50000    0.36800    1.000
    C28      C        0.00000    0.50000    0.43450    1.000
    C29      C        0.50000    0.00000    0.13200    1.000
    C30      C        0.50000    0.00000    0.06550    1.000
    C31      C        0.00000    0.50000    0.63200    1.000
    C32      C        0.00000    0.50000    0.56550    1.000
