# CIF file generated by openbabel 3.1.0, see https://openbabel.org
data_I
_chemical_name_common 'image0'
_cell_length_a 16.697
_cell_length_b 13.848
_cell_length_c 10.873
_cell_angle_alpha 90
_cell_angle_beta 101.62
_cell_angle_gamma 90
_space_group_name_H-M_alt 'P 1'
_space_group_name_Hall 'P 1'
loop_
    _symmetry_equiv_pos_as_xyz
    x,y,z
loop_
    _atom_site_label
    _atom_site_type_symbol
    _atom_site_fract_x
    _atom_site_fract_y
    _atom_site_fract_z
    _atom_site_occupancy
    Fe1      Fe       0.93480    0.63060    0.85780    1.000
    O1       O        0.87150    0.41380    0.97180    1.000
    O2       O        0.83630    0.54030    0.83600    1.000
    O3       O        0.71140    0.35110    0.92160    1.000
    O4       O        0.62400    0.21430    0.02030    1.000
    O5       O        0.51750    0.24110    0.85840    1.000
    O6       O        0.99150    0.40650    0.80950    1.000
    O7       O        0.98130    0.56000    0.72600    1.000
    O8       O        0.86450    0.71150    0.71580    1.000
    C1       C        0.82350    0.46120    0.89530    1.000
    C2       C        0.73460    0.42920    0.85710    1.000
    C3       C        0.67760    0.45700    0.76540    1.000
    H1       H        0.68090    0.50680    0.70660    1.000
    C4       C        0.60640    0.39580    0.77050    1.000
    H2       H        0.55360    0.39910    0.71820    1.000
    C5       C        0.63280    0.33370    0.86640    1.000
    C6       C        0.58620    0.25500    0.91810    1.000
    C7       C        0.98660    0.46730    0.72230    1.000
    C8       C        0.99930    0.42750    0.59750    1.000
    C9       C        0.99850    0.32640    0.56740    1.000
    H3       H        0.99640    0.27280    0.62110    1.000
    Co1      Co       0.93420    0.63370    0.87660    1.000
    Fe2      Fe       0.43480    0.13060    0.85780    1.000
    O9       O        0.37150    0.91380    0.97180    1.000
    O10      O        0.33630    0.04030    0.83600    1.000
    O11      O        0.21140    0.85110    0.92160    1.000
    O12      O        0.12400    0.71430    0.02030    1.000
    O13      O        0.01750    0.74110    0.85840    1.000
    O14      O        0.49150    0.90650    0.80950    1.000
    O15      O        0.48130    0.06000    0.72600    1.000
    O16      O        0.36450    0.21150    0.71580    1.000
    C10      C        0.32350    0.96120    0.89530    1.000
    C11      C        0.23460    0.92920    0.85710    1.000
    C12      C        0.17760    0.95700    0.76540    1.000
    H4       H        0.18090    0.00680    0.70660    1.000
    C13      C        0.10640    0.89580    0.77050    1.000
    H5       H        0.05360    0.89910    0.71820    1.000
    C14      C        0.13280    0.83370    0.86640    1.000
    C15      C        0.08620    0.75500    0.91810    1.000
    C16      C        0.48660    0.96730    0.72230    1.000
    C17      C        0.49930    0.92750    0.59750    1.000
    C18      C        0.49850    0.82640    0.56740    1.000
    H6       H        0.49640    0.77280    0.62110    1.000
    Co2      Co       0.43420    0.13370    0.87660    1.000
    Fe3      Fe       0.06520    0.63060    0.14220    1.000
    O17      O        0.12850    0.41380    0.02820    1.000
    O18      O        0.16370    0.54030    0.16400    1.000
    O19      O        0.28860    0.35110    0.07840    1.000
    O20      O        0.37600    0.21430    0.97970    1.000
    O21      O        0.48250    0.24110    0.14160    1.000
    O22      O        0.00850    0.40650    0.19050    1.000
    O23      O        0.01870    0.56000    0.27400    1.000
    O24      O        0.13550    0.71150    0.28420    1.000
    C19      C        0.17650    0.46120    0.10470    1.000
    C20      C        0.26540    0.42920    0.14290    1.000
    C21      C        0.32240    0.45700    0.23460    1.000
    H7       H        0.31910    0.50680    0.29340    1.000
    C22      C        0.39360    0.39580    0.22950    1.000
    H8       H        0.44640    0.39910    0.28180    1.000
    C23      C        0.36720    0.33370    0.13360    1.000
    C24      C        0.41380    0.25500    0.08190    1.000
    C25      C        0.01340    0.46730    0.27770    1.000
    C26      C        0.00070    0.42750    0.40250    1.000
    C27      C        0.00150    0.32640    0.43260    1.000
    H9       H        0.00360    0.27280    0.37890    1.000
    Co3      Co       0.06580    0.63370    0.12340    1.000
    Fe4      Fe       0.56520    0.13060    0.14220    1.000
    O25      O        0.62850    0.91380    0.02820    1.000
    O26      O        0.66370    0.04030    0.16400    1.000
    O27      O        0.78860    0.85110    0.07840    1.000
    O28      O        0.87600    0.71430    0.97970    1.000
    O29      O        0.98250    0.74110    0.14160    1.000
    O30      O        0.50850    0.90650    0.19050    1.000
    O31      O        0.51870    0.06000    0.27400    1.000
    O32      O        0.63550    0.21150    0.28420    1.000
    C28      C        0.67650    0.96120    0.10470    1.000
    C29      C        0.76540    0.92920    0.14290    1.000
    C30      C        0.82240    0.95700    0.23460    1.000
    H10      H        0.81910    0.00680    0.29340    1.000
    C31      C        0.89360    0.89580    0.22950    1.000
    H11      H        0.94640    0.89910    0.28180    1.000
    C32      C        0.86720    0.83370    0.13360    1.000
    C33      C        0.91380    0.75500    0.08190    1.000
    C34      C        0.51340    0.96730    0.27770    1.000
    C35      C        0.50070    0.92750    0.40250    1.000
    C36      C        0.50150    0.82640    0.43260    1.000
    H12      H        0.50360    0.77280    0.37890    1.000
    Co4      Co       0.56580    0.13370    0.12340    1.000
    O33      O        0.00000    0.48290    0.50000    1.000
    O34      O        0.50000    0.98290    0.50000    1.000
    O35      O        0.00000    0.56810    0.00000    1.000
    Fe5      Fe       0.00000    0.41950    0.00000    1.000
    Co5      Co       0.00000    0.43230    0.00000    1.000
    O36      O        0.50000    0.06810    0.00000    1.000
    Fe6      Fe       0.50000    0.91950    0.00000    1.000
    Co6      Co       0.50000    0.93230    0.00000    1.000
