# CIF file generated by openbabel 3.1.0, see https://openbabel.org
data_I
_chemical_name_common 'image0'
_cell_length_a 9.9197
_cell_length_b 9.9197
_cell_length_c 6.3434
_cell_angle_alpha 90
_cell_angle_beta 90
_cell_angle_gamma 90
_space_group_name_H-M_alt 'P 1'
_space_group_name_Hall 'P 1'
loop_
    _symmetry_equiv_pos_as_xyz
    x,y,z
loop_
    _atom_site_label
    _atom_site_type_symbol
    _atom_site_fract_x
    _atom_site_fract_y
    _atom_site_fract_z
    _atom_site_occupancy
    C1       C        0.22268    0.17520    0.16735    1.000
    H1       H        0.20153    0.12250    0.29024    1.000
    C2       C        0.77732    0.82480    0.16735    1.000
    H2       H        0.79847    0.87750    0.29024    1.000
    C3       C        0.32480    0.72268    0.16735    1.000
    H3       H        0.37750    0.70153    0.29024    1.000
    C4       C        0.67520    0.27732    0.16735    1.000
    H4       H        0.62250    0.29847    0.29024    1.000
    C5       C        0.27732    0.67520    0.83265    1.000
    H5       H        0.29847    0.62250    0.70976    1.000
    C6       C        0.72268    0.32480    0.83265    1.000
    H6       H        0.70153    0.37750    0.70976    1.000
    C7       C        0.17520    0.22268    0.83265    1.000
    H7       H        0.12250    0.20153    0.70976    1.000
    C8       C        0.82480    0.77732    0.83265    1.000
    H8       H        0.87750    0.79847    0.70976    1.000
    C9       C        0.27732    0.32480    0.83265    1.000
    H9       H        0.29847    0.37750    0.70976    1.000
    C10      C        0.72268    0.67520    0.83265    1.000
    H10      H        0.70153    0.62250    0.70976    1.000
    C11      C        0.17520    0.77732    0.83265    1.000
    H11      H        0.12250    0.79847    0.70976    1.000
    C12      C        0.82480    0.22268    0.83265    1.000
    H12      H        0.87750    0.20153    0.70976    1.000
    C13      C        0.22268    0.82480    0.16735    1.000
    H13      H        0.20153    0.87750    0.29024    1.000
    C14      C        0.77732    0.17520    0.16735    1.000
    H14      H        0.79847    0.12250    0.29024    1.000
    C15      C        0.32480    0.27732    0.16735    1.000
    H15      H        0.37750    0.29847    0.29024    1.000
    C16      C        0.67520    0.72268    0.16735    1.000
    H16      H        0.62250    0.70153    0.29024    1.000
    Ni1      Ni       0.00000    0.00000    0.00000    1.000
    Ni2      Ni       0.50000    0.50000    0.00000    1.000
    F1       F        0.00000    0.00000    0.32578    1.000
    F2       F        0.50000    0.50000    0.32578    1.000
    F3       F        0.50000    0.50000    0.67422    1.000
    F4       F        0.00000    0.00000    0.67422    1.000
    N1       N        0.15047    0.15047    0.00000    1.000
    N2       N        0.84953    0.84953    0.00000    1.000
    N3       N        0.34953    0.65047    0.00000    1.000
    N4       N        0.65047    0.34953    0.00000    1.000
    N5       N        0.34953    0.34953    0.00000    1.000
    N6       N        0.65047    0.65047    0.00000    1.000
    N7       N        0.15047    0.84953    0.00000    1.000
    N8       N        0.84953    0.15047    0.00000    1.000
    H17      H        0.00000    0.00000    0.50000    1.000
    H18      H        0.50000    0.50000    0.50000    1.000
