# CIF file generated by openbabel 3.1.0, see https://openbabel.org
data_I
_chemical_name_common 'image0'
_cell_length_a 8.717
_cell_length_b 11.617
_cell_length_c 8.289
_cell_angle_alpha 90
_cell_angle_beta 90
_cell_angle_gamma 90
_space_group_name_H-M_alt 'P 1'
_space_group_name_Hall 'P 1'
loop_
    _symmetry_equiv_pos_as_xyz
    x,y,z
loop_
    _atom_site_label
    _atom_site_type_symbol
    _atom_site_fract_x
    _atom_site_fract_y
    _atom_site_fract_z
    _atom_site_occupancy
    O1       O        0.41277    0.31678    0.10538    1.000
    O2       O        0.08376    0.17654    0.41138    1.000
    O3       O        0.23734    0.40508    0.38366    1.000
    C1       C        0.47011    0.28029    0.97767    1.000
    H1       H        0.42500    0.21300    0.93800    1.000
    O4       O        0.08723    0.68322    0.10538    1.000
    O5       O        0.41624    0.82346    0.41138    1.000
    O6       O        0.26266    0.59492    0.38366    1.000
    C2       C        0.02989    0.71971    0.97767    1.000
    H2       H        0.07500    0.78700    0.93800    1.000
    O7       O        0.08723    0.81678    0.39462    1.000
    O8       O        0.41624    0.67654    0.08862    1.000
    O9       O        0.26266    0.90508    0.11634    1.000
    C3       C        0.02989    0.78029    0.52233    1.000
    H3       H        0.07500    0.71300    0.56200    1.000
    O10      O        0.41277    0.18322    0.39462    1.000
    O11      O        0.08376    0.32346    0.08862    1.000
    O12      O        0.23734    0.09492    0.11634    1.000
    C4       C        0.47011    0.21971    0.52233    1.000
    H4       H        0.42500    0.28700    0.56200    1.000
    O13      O        0.58723    0.68322    0.89462    1.000
    O14      O        0.91624    0.82346    0.58862    1.000
    O15      O        0.76266    0.59492    0.61634    1.000
    C5       C        0.52989    0.71971    0.02233    1.000
    H5       H        0.57500    0.78700    0.06200    1.000
    O16      O        0.91277    0.31678    0.89462    1.000
    O17      O        0.58376    0.17654    0.58862    1.000
    O18      O        0.73734    0.40508    0.61634    1.000
    C6       C        0.97011    0.28029    0.02233    1.000
    H6       H        0.92500    0.21300    0.06200    1.000
    O19      O        0.91277    0.18322    0.60538    1.000
    O20      O        0.58376    0.32346    0.91138    1.000
    O21      O        0.73734    0.09492    0.88366    1.000
    C7       C        0.97011    0.21971    0.47767    1.000
    H7       H        0.92500    0.28700    0.43800    1.000
    O22      O        0.58723    0.81678    0.60538    1.000
    O23      O        0.91624    0.67654    0.91138    1.000
    O24      O        0.76266    0.90508    0.88366    1.000
    C8       C        0.52989    0.78029    0.47767    1.000
    H8       H        0.57500    0.71300    0.43800    1.000
    Zn1      Zn       0.23547    0.25000    0.25000    1.000
    Zn2      Zn       0.26453    0.75000    0.25000    1.000
    Zn3      Zn       0.76453    0.75000    0.75000    1.000
    Zn4      Zn       0.73547    0.25000    0.75000    1.000
    C9       C        0.25000    0.50000    0.31394    1.000
    H9       H        0.25000    0.50000    0.19000    1.000
    C10      C        0.25000    0.00000    0.18606    1.000
    H10      H        0.25000    0.00000    0.31000    1.000
    C11      C        0.75000    0.50000    0.68606    1.000
    H11      H        0.75000    0.50000    0.81000    1.000
    C12      C        0.75000    0.00000    0.81394    1.000
    H12      H        0.75000    0.00000    0.69000    1.000
