# CIF file generated by openbabel 3.1.0, see https://openbabel.org
data_I
_chemical_name_common 'image0'
_cell_length_a 9.003
_cell_length_b 17.382
_cell_length_c 17.057
_cell_angle_alpha 90
_cell_angle_beta 104.595
_cell_angle_gamma 90
_space_group_name_H-M_alt 'P 1'
_space_group_name_Hall 'P 1'
loop_
    _symmetry_equiv_pos_as_xyz
    x,y,z
loop_
    _atom_site_label
    _atom_site_type_symbol
    _atom_site_fract_x
    _atom_site_fract_y
    _atom_site_fract_z
    _atom_site_occupancy
    Cd1      Cd       0.38438    0.06015    0.21475    1.000
    N1       N        0.76210    0.90500    0.17940    1.000
    C1       C        0.68920    0.95580    0.28290    1.000
    H1       H        0.68270    0.96780    0.33630    1.000
    C2       C        0.80720    0.66750    0.23020    1.000
    H2       H        0.75380    0.63020    0.25340    1.000
    N2       N        0.95770    0.66140    0.22570    1.000
    N3       N        0.00210    0.88780    0.12860    1.000
    N4       N        0.74500    0.84850    0.04080    1.000
    C3       C        0.07140    0.95140    0.16890    1.000
    H3       H        0.02940    0.98130    0.20470    1.000
    C4       C        0.64200    0.95260    0.15280    1.000
    H4       H        0.59670    0.96220    0.09710    1.000
    N5       N        0.86190    0.77230    0.16980    1.000
    O1       O        0.20640    0.08750    0.29320    1.000
    C5       C        0.74750    0.73470    0.19670    1.000
    H5       H        0.64620    0.75280    0.19230    1.000
    N6       N        0.20410    0.96610    0.15210    1.000
    C6       C        0.98680    0.72510    0.18920    1.000
    H6       H        0.08260    0.73640    0.17800    1.000
    N7       N        0.64890    0.88080    0.91080    1.000
    N8       N        0.59350    0.98450    0.21210    1.000
    C7       C        0.10030    0.86230    0.08340    1.000
    H7       H        0.08450    0.81920    0.04810    1.000
    O2       O        0.38840    0.00520    0.34660    1.000
    C8       C        0.79360    0.90790    0.26370    1.000
    H8       H        0.87350    0.88130    0.30080    1.000
    C9       C        0.75490    0.89500    0.97840    1.000
    H9       H        0.83060    0.93400    0.98280    1.000
    C10      C        0.04530    0.04830    0.41110    1.000
    H10      H        0.99930    0.08420    0.37020    1.000
    C11      C        0.96570    0.02710    0.46980    1.000
    C12      C        0.22310    0.91000    0.09880    1.000
    H11      H        0.30890    0.90550    0.07620    1.000
    C13      C        0.18670    0.01850    0.41160    1.000
    B1       B        0.84460    0.85370    0.12940    1.000
    C14      C        0.25700    0.96530    0.47370    1.000
    H12      H        0.35610    0.94530    0.47580    1.000
    C15      C        0.56390    0.82150    0.93060    1.000
    H13      H        0.47790    0.79810    0.89450    1.000
    C16      C        0.62120    0.80140    0.00940    1.000
    H14      H        0.58290    0.76210    0.03770    1.000
    C17      C        0.26670    0.03890    0.34730    1.000
    C18      C        0.18070    0.94310    0.53060    1.000
    H15      H        0.22750    0.90690    0.57100    1.000
    Cd2      Cd       0.11562    0.56015    0.28525    1.000
    N9       N        0.73790    0.40500    0.32060    1.000
    C19      C        0.81080    0.45580    0.21710    1.000
    H16      H        0.81730    0.46780    0.16370    1.000
    C20      C        0.69280    0.16750    0.26980    1.000
    H17      H        0.74620    0.13020    0.24660    1.000
    N10      N        0.54230    0.16140    0.27430    1.000
    N11      N        0.49790    0.38780    0.37140    1.000
    N12      N        0.75500    0.34850    0.45920    1.000
    C21      C        0.42860    0.45140    0.33110    1.000
    H18      H        0.47060    0.48130    0.29530    1.000
    C22      C        0.85800    0.45260    0.34720    1.000
    H19      H        0.90330    0.46220    0.40290    1.000
    N13      N        0.63810    0.27230    0.33020    1.000
    O3       O        0.29360    0.58750    0.20680    1.000
    C23      C        0.75250    0.23470    0.30330    1.000
    H20      H        0.85380    0.25280    0.30770    1.000
    N14      N        0.29590    0.46610    0.34790    1.000
    C24      C        0.51320    0.22510    0.31080    1.000
    H21      H        0.41740    0.23640    0.32200    1.000
    N15      N        0.85110    0.38080    0.58920    1.000
    N16      N        0.90650    0.48450    0.28790    1.000
    C25      C        0.39970    0.36230    0.41660    1.000
    H22      H        0.41550    0.31920    0.45190    1.000
    O4       O        0.11160    0.50520    0.15340    1.000
    C26      C        0.70640    0.40790    0.23630    1.000
    H23      H        0.62650    0.38130    0.19920    1.000
    C27      C        0.74510    0.39500    0.52160    1.000
    H24      H        0.66940    0.43400    0.51720    1.000
    C28      C        0.45470    0.54830    0.08890    1.000
    H25      H        0.50070    0.58420    0.12980    1.000
    C29      C        0.53430    0.52710    0.03020    1.000
    C30      C        0.27690    0.41000    0.40120    1.000
    H26      H        0.19110    0.40550    0.42380    1.000
    C31      C        0.31330    0.51850    0.08840    1.000
    B2       B        0.65540    0.35370    0.37060    1.000
    C32      C        0.24300    0.46530    0.02630    1.000
    H27      H        0.14390    0.44530    0.02420    1.000
    C33      C        0.93610    0.32150    0.56940    1.000
    H28      H        0.02210    0.29810    0.60550    1.000
    C34      C        0.87880    0.30140    0.49060    1.000
    H29      H        0.91710    0.26210    0.46230    1.000
    C35      C        0.23330    0.53890    0.15270    1.000
    C36      C        0.31930    0.44310    0.96940    1.000
    H30      H        0.27250    0.40690    0.92900    1.000
    Cd3      Cd       0.61562    0.93985    0.78525    1.000
    N17      N        0.23790    0.09500    0.82060    1.000
    C37      C        0.31080    0.04420    0.71710    1.000
    H31      H        0.31730    0.03220    0.66370    1.000
    C38      C        0.19280    0.33250    0.76980    1.000
    H32      H        0.24620    0.36980    0.74660    1.000
    N18      N        0.04230    0.33860    0.77430    1.000
    N19      N        0.99790    0.11220    0.87140    1.000
    N20      N        0.25500    0.15150    0.95920    1.000
    C39      C        0.92860    0.04860    0.83110    1.000
    H33      H        0.97060    0.01870    0.79530    1.000
    C40      C        0.35800    0.04740    0.84720    1.000
    H34      H        0.40330    0.03780    0.90290    1.000
    N21      N        0.13810    0.22770    0.83020    1.000
    O5       O        0.79360    0.91250    0.70680    1.000
    C41      C        0.25250    0.26530    0.80330    1.000
    H35      H        0.35380    0.24720    0.80770    1.000
    N22      N        0.79590    0.03390    0.84790    1.000
    C42      C        0.01320    0.27490    0.81080    1.000
    H36      H        0.91740    0.26360    0.82200    1.000
    N23      N        0.35110    0.11920    0.08920    1.000
    N24      N        0.40650    0.01550    0.78790    1.000
    C43      C        0.89970    0.13770    0.91660    1.000
    H37      H        0.91550    0.18080    0.95190    1.000
    O6       O        0.61160    0.99480    0.65340    1.000
    C44      C        0.20640    0.09210    0.73630    1.000
    H38      H        0.12650    0.11870    0.69920    1.000
    C45      C        0.24510    0.10500    0.02160    1.000
    H39      H        0.16940    0.06600    0.01720    1.000
    C46      C        0.95470    0.95170    0.58890    1.000
    H40      H        0.00070    0.91580    0.62980    1.000
    C47      C        0.03430    0.97290    0.53020    1.000
    C48      C        0.77690    0.09000    0.90120    1.000
    H41      H        0.69110    0.09450    0.92380    1.000
    C49      C        0.81330    0.98150    0.58840    1.000
    B3       B        0.15540    0.14630    0.87060    1.000
    C50      C        0.74300    0.03470    0.52630    1.000
    H42      H        0.64390    0.05470    0.52420    1.000
    C51      C        0.43610    0.17850    0.06940    1.000
    H43      H        0.52210    0.20190    0.10550    1.000
    C52      C        0.37880    0.19860    0.99060    1.000
    H44      H        0.41710    0.23790    0.96230    1.000
    C53      C        0.73330    0.96110    0.65270    1.000
    C54      C        0.81930    0.05690    0.46940    1.000
    H45      H        0.77250    0.09310    0.42900    1.000
    Cd4      Cd       0.88438    0.43985    0.71475    1.000
    N25      N        0.26210    0.59500    0.67940    1.000
    C55      C        0.18920    0.54420    0.78290    1.000
    H46      H        0.18270    0.53220    0.83630    1.000
    C56      C        0.30720    0.83250    0.73020    1.000
    H47      H        0.25380    0.86980    0.75340    1.000
    N26      N        0.45770    0.83860    0.72570    1.000
    N27      N        0.50210    0.61220    0.62860    1.000
    N28      N        0.24500    0.65150    0.54080    1.000
    C57      C        0.57140    0.54860    0.66890    1.000
    H48      H        0.52940    0.51870    0.70470    1.000
    C58      C        0.14200    0.54740    0.65280    1.000
    H49      H        0.09670    0.53780    0.59710    1.000
    N29      N        0.36190    0.72770    0.66980    1.000
    O7       O        0.70640    0.41250    0.79320    1.000
    C59      C        0.24750    0.76530    0.69670    1.000
    H50      H        0.14620    0.74720    0.69230    1.000
    N30      N        0.70410    0.53390    0.65210    1.000
    C60      C        0.48680    0.77490    0.68920    1.000
    H51      H        0.58260    0.76360    0.67800    1.000
    N31      N        0.14890    0.61920    0.41080    1.000
    N32      N        0.09350    0.51550    0.71210    1.000
    C61      C        0.60030    0.63770    0.58340    1.000
    H52      H        0.58450    0.68080    0.54810    1.000
    O8       O        0.88840    0.49480    0.84660    1.000
    C62      C        0.29360    0.59210    0.76370    1.000
    H53      H        0.37350    0.61870    0.80080    1.000
    C63      C        0.25490    0.60500    0.47840    1.000
    H54      H        0.33060    0.56600    0.48280    1.000
    C64      C        0.54530    0.45170    0.91110    1.000
    H55      H        0.49930    0.41580    0.87020    1.000
    C65      C        0.46570    0.47290    0.96980    1.000
    C66      C        0.72310    0.59000    0.59880    1.000
    H56      H        0.80890    0.59450    0.57620    1.000
    C67      C        0.68670    0.48150    0.91160    1.000
    B4       B        0.34460    0.64630    0.62940    1.000
    C68      C        0.75700    0.53470    0.97370    1.000
    H57      H        0.85610    0.55470    0.97580    1.000
    C69      C        0.06390    0.67850    0.43060    1.000
    H58      H        0.97790    0.70190    0.39450    1.000
    C70      C        0.12120    0.69860    0.50940    1.000
    H59      H        0.08290    0.73790    0.53770    1.000
    C71      C        0.76670    0.46110    0.84730    1.000
    C72      C        0.68070    0.55690    0.03060    1.000
    H60      H        0.72750    0.59310    0.07100    1.000
