# CIF file generated by openbabel 3.1.0, see https://openbabel.org
data_I
_chemical_name_common 'image0'
_cell_length_a 11.1577
_cell_length_b 17.4945
_cell_length_c 13.0419
_cell_angle_alpha 90
_cell_angle_beta 102.316
_cell_angle_gamma 90
_space_group_name_H-M_alt 'P 1'
_space_group_name_Hall 'P 1'
loop_
    _symmetry_equiv_pos_as_xyz
    x,y,z
loop_
    _atom_site_label
    _atom_site_type_symbol
    _atom_site_fract_x
    _atom_site_fract_y
    _atom_site_fract_z
    _atom_site_occupancy
    Zn1      Zn       0.36802    0.94008    0.64536    1.000
    Ca1      Ca       0.44625    0.13179    0.57441    1.000
    C1       C        0.74500    0.90037    0.15230    1.000
    C2       C        0.78410    0.82497    0.15590    1.000
    H1       H        0.78880    0.79660    0.21690    1.000
    C3       C        0.81620    0.79154    0.06910    1.000
    C4       C        0.80860    0.83360    0.97720    1.000
    H2       H        0.83120    0.81190    0.91900    1.000
    C5       C        0.76690    0.90830    0.97410    1.000
    C6       C        0.73630    0.94215    0.06070    1.000
    H3       H        0.71010    0.99270    0.05760    1.000
    C7       C        0.70500    0.93558    0.24520    1.000
    C8       C        0.85420    0.70850    0.07310    1.000
    C9       C        0.81490    0.95295    0.81110    1.000
    C10      C        0.75440    0.97197    0.71000    1.000
    C11      C        0.82370    0.98370    0.63380    1.000
    C12      C        0.95080    0.97610    0.66000    1.000
    H4       H        0.99700    0.98460    0.60960    1.000
    C13      C        0.00800    0.95600    0.76080    1.000
    H5       H        0.09270    0.95000    0.77750    1.000
    C14      C        0.94090    0.94470    0.83740    1.000
    H6       H        0.98010    0.93170    0.90540    1.000
    C15      C        0.61800    0.98601    0.68750    1.000
    C16      C        0.76210    0.00890    0.52520    1.000
    O1       O        0.68130    0.00662    0.23860    1.000
    O2       O        0.69670    0.89351    0.32034    1.000
    O3       O        0.83540    0.67082    0.15081    1.000
    O4       O        0.89870    0.68169    0.00080    1.000
    O5       O        0.74090    0.95217    0.88340    1.000
    O6       O        0.81860    0.04745    0.47240    1.000
    O7       O        0.64990    0.99084    0.49132    1.000
    O8       O        0.58210    0.05302    0.68406    1.000
    O9       O        0.54950    0.92822    0.67510    1.000
    Zn2      Zn       0.13198    0.44008    0.85464    1.000
    Ca2      Ca       0.05375    0.63179    0.92559    1.000
    C17      C        0.75500    0.40037    0.34770    1.000
    C18      C        0.71590    0.32497    0.34410    1.000
    H7       H        0.71120    0.29660    0.28310    1.000
    C19      C        0.68380    0.29154    0.43090    1.000
    C20      C        0.69140    0.33360    0.52280    1.000
    H8       H        0.66880    0.31190    0.58100    1.000
    C21      C        0.73310    0.40830    0.52590    1.000
    C22      C        0.76370    0.44215    0.43930    1.000
    H9       H        0.78990    0.49270    0.44240    1.000
    C23      C        0.79500    0.43558    0.25480    1.000
    C24      C        0.64580    0.20850    0.42690    1.000
    C25      C        0.68510    0.45295    0.68890    1.000
    C26      C        0.74560    0.47197    0.79000    1.000
    C27      C        0.67630    0.48370    0.86620    1.000
    C28      C        0.54920    0.47610    0.84000    1.000
    H10      H        0.50300    0.48460    0.89040    1.000
    C29      C        0.49200    0.45600    0.73920    1.000
    H11      H        0.40730    0.45000    0.72250    1.000
    C30      C        0.55910    0.44470    0.66260    1.000
    H12      H        0.51990    0.43170    0.59460    1.000
    C31      C        0.88200    0.48601    0.81250    1.000
    C32      C        0.73790    0.50890    0.97480    1.000
    O10      O        0.81870    0.50662    0.26140    1.000
    O11      O        0.80330    0.39351    0.17966    1.000
    O12      O        0.66460    0.17082    0.34919    1.000
    O13      O        0.60130    0.18169    0.49920    1.000
    O14      O        0.75910    0.45217    0.61660    1.000
    O15      O        0.68140    0.54745    0.02760    1.000
    O16      O        0.85010    0.49084    0.00868    1.000
    O17      O        0.91790    0.55302    0.81594    1.000
    O18      O        0.95050    0.42822    0.82490    1.000
    Zn3      Zn       0.63198    0.05992    0.35464    1.000
    Ca3      Ca       0.55375    0.86821    0.42559    1.000
    C33      C        0.25500    0.09963    0.84770    1.000
    C34      C        0.21590    0.17503    0.84410    1.000
    H13      H        0.21120    0.20340    0.78310    1.000
    C35      C        0.18380    0.20846    0.93090    1.000
    C36      C        0.19140    0.16640    0.02280    1.000
    H14      H        0.16880    0.18810    0.08100    1.000
    C37      C        0.23310    0.09170    0.02590    1.000
    C38      C        0.26370    0.05785    0.93930    1.000
    H15      H        0.28990    0.00730    0.94240    1.000
    C39      C        0.29500    0.06442    0.75480    1.000
    C40      C        0.14580    0.29150    0.92690    1.000
    C41      C        0.18510    0.04705    0.18890    1.000
    C42      C        0.24560    0.02803    0.29000    1.000
    C43      C        0.17630    0.01630    0.36620    1.000
    C44      C        0.04920    0.02390    0.34000    1.000
    H16      H        0.00300    0.01540    0.39040    1.000
    C45      C        0.99200    0.04400    0.23920    1.000
    H17      H        0.90730    0.05000    0.22250    1.000
    C46      C        0.05910    0.05530    0.16260    1.000
    H18      H        0.01990    0.06830    0.09460    1.000
    C47      C        0.38200    0.01399    0.31250    1.000
    C48      C        0.23790    0.99110    0.47480    1.000
    O19      O        0.31870    0.99338    0.76140    1.000
    O20      O        0.30330    0.10649    0.67966    1.000
    O21      O        0.16460    0.32918    0.84919    1.000
    O22      O        0.10130    0.31831    0.99920    1.000
    O23      O        0.25910    0.04783    0.11660    1.000
    O24      O        0.18140    0.95255    0.52760    1.000
    O25      O        0.35010    0.00916    0.50868    1.000
    O26      O        0.41790    0.94698    0.31594    1.000
    O27      O        0.45050    0.07178    0.32490    1.000
    Zn4      Zn       0.86802    0.55992    0.14536    1.000
    Ca4      Ca       0.94625    0.36821    0.07441    1.000
    C49      C        0.24500    0.59963    0.65230    1.000
    C50      C        0.28410    0.67503    0.65590    1.000
    H19      H        0.28880    0.70340    0.71690    1.000
    C51      C        0.31620    0.70846    0.56910    1.000
    C52      C        0.30860    0.66640    0.47720    1.000
    H20      H        0.33120    0.68810    0.41900    1.000
    C53      C        0.26690    0.59170    0.47410    1.000
    C54      C        0.23630    0.55785    0.56070    1.000
    H21      H        0.21010    0.50730    0.55760    1.000
    C55      C        0.20500    0.56442    0.74520    1.000
    C56      C        0.35420    0.79150    0.57310    1.000
    C57      C        0.31490    0.54705    0.31110    1.000
    C58      C        0.25440    0.52803    0.21000    1.000
    C59      C        0.32370    0.51630    0.13380    1.000
    C60      C        0.45080    0.52390    0.16000    1.000
    H22      H        0.49700    0.51540    0.10960    1.000
    C61      C        0.50800    0.54400    0.26080    1.000
    H23      H        0.59270    0.55000    0.27750    1.000
    C62      C        0.44090    0.55530    0.33740    1.000
    H24      H        0.48010    0.56830    0.40540    1.000
    C63      C        0.11800    0.51399    0.18750    1.000
    C64      C        0.26210    0.49110    0.02520    1.000
    O28      O        0.18130    0.49338    0.73860    1.000
    O29      O        0.19670    0.60649    0.82034    1.000
    O30      O        0.33540    0.82918    0.65081    1.000
    O31      O        0.39870    0.81831    0.50080    1.000
    O32      O        0.24090    0.54783    0.38340    1.000
    O33      O        0.31860    0.45255    0.97240    1.000
    O34      O        0.14990    0.50916    0.99132    1.000
    O35      O        0.08210    0.44698    0.18406    1.000
    O36      O        0.04950    0.57178    0.17510    1.000
