# CIF file generated by openbabel 3.1.0, see https://openbabel.org
data_I
_chemical_name_common 'KIXXOG_clean'
_cell_length_a 6.7017
_cell_length_b 14.3958
_cell_length_c 14.9405
_cell_angle_alpha 90
_cell_angle_beta 90
_cell_angle_gamma 90
_space_group_name_H-M_alt 'P 1'
_space_group_name_Hall 'P 1'
loop_
    _symmetry_equiv_pos_as_xyz
    x,y,z
loop_
    _atom_site_label
    _atom_site_type_symbol
    _atom_site_fract_x
    _atom_site_fract_y
    _atom_site_fract_z
    _atom_site_occupancy
    Ca1      Ca       0.86327    0.80386    0.45807    1.000
    Ca2      Ca       0.63673    0.19614    0.95807    1.000
    Ca3      Ca       0.13673    0.30386    0.04193    1.000
    Ca4      Ca       0.36327    0.69614    0.54193    1.000
    H1       H        0.85340    0.66020    0.75120    1.000
    H2       H        0.89130    0.54860    0.86250    1.000
    H3       H        0.86490    0.26750    0.71010    1.000
    H4       H        0.86870    0.22630    0.56360    1.000
    H5       H        0.87840    0.33880    0.45170    1.000
    H6       H        0.87580    0.49310    0.48820    1.000
    H7       H        0.64660    0.33980    0.25120    1.000
    H8       H        0.60870    0.45140    0.36250    1.000
    H9       H        0.63510    0.73250    0.21010    1.000
    H10      H        0.63130    0.77370    0.06360    1.000
    H11      H        0.62160    0.66120    0.95170    1.000
    H12      H        0.62420    0.50690    0.98820    1.000
    H13      H        0.14660    0.16020    0.74880    1.000
    H14      H        0.10870    0.04860    0.63750    1.000
    H15      H        0.13510    0.76750    0.78990    1.000
    H16      H        0.13130    0.72630    0.93640    1.000
    H17      H        0.12160    0.83880    0.04830    1.000
    H18      H        0.12420    0.99310    0.01180    1.000
    H19      H        0.35340    0.83980    0.24880    1.000
    H20      H        0.39130    0.95140    0.13750    1.000
    H21      H        0.36490    0.23250    0.28990    1.000
    H22      H        0.36870    0.27370    0.43640    1.000
    H23      H        0.37840    0.16120    0.54830    1.000
    H24      H        0.37580    0.00690    0.51180    1.000
    C1       C        0.86320    0.64910    0.57878    1.000
    C2       C        0.86560    0.57299    0.64792    1.000
    C3       C        0.86470    0.59784    0.73556    1.000
    C4       C        0.88060    0.52986    0.80306    1.000
    C5       C        0.88090    0.43773    0.78351    1.000
    C6       C        0.87250    0.40853    0.69253    1.000
    C7       C        0.87220    0.47751    0.62367    1.000
    C8       C        0.86870    0.31344    0.66638    1.000
    C9       C        0.87050    0.28883    0.57912    1.000
    C10      C        0.87500    0.35666    0.51151    1.000
    C11      C        0.87460    0.44867    0.53344    1.000
    C12      C        0.89140    0.37012    0.86171    1.000
    C13      C        0.63680    0.35090    0.07878    1.000
    C14      C        0.63440    0.42701    0.14792    1.000
    C15      C        0.63530    0.40216    0.23556    1.000
    C16      C        0.61940    0.47014    0.30306    1.000
    C17      C        0.61910    0.56227    0.28351    1.000
    C18      C        0.62750    0.59147    0.19253    1.000
    C19      C        0.62780    0.52249    0.12367    1.000
    C20      C        0.63130    0.68656    0.16638    1.000
    C21      C        0.62950    0.71117    0.07912    1.000
    C22      C        0.62500    0.64334    0.01151    1.000
    C23      C        0.62540    0.55133    0.03344    1.000
    C24      C        0.60860    0.62988    0.36171    1.000
    C25      C        0.13680    0.14910    0.92122    1.000
    C26      C        0.13440    0.07299    0.85208    1.000
    C27      C        0.13530    0.09784    0.76444    1.000
    C28      C        0.11940    0.02986    0.69694    1.000
    C29      C        0.11910    0.93773    0.71649    1.000
    C30      C        0.12750    0.90853    0.80747    1.000
    C31      C        0.12780    0.97751    0.87633    1.000
    C32      C        0.13130    0.81344    0.83362    1.000
    C33      C        0.12950    0.78883    0.92088    1.000
    C34      C        0.12500    0.85666    0.98849    1.000
    C35      C        0.12540    0.94867    0.96656    1.000
    C36      C        0.10860    0.87012    0.63829    1.000
    C37      C        0.36320    0.85090    0.42122    1.000
    C38      C        0.36560    0.92701    0.35208    1.000
    C39      C        0.36470    0.90216    0.26444    1.000
    C40      C        0.38060    0.97014    0.19694    1.000
    C41      C        0.38090    0.06227    0.21649    1.000
    C42      C        0.37250    0.09147    0.30747    1.000
    C43      C        0.37220    0.02249    0.37633    1.000
    C44      C        0.36870    0.18656    0.33362    1.000
    C45      C        0.37050    0.21117    0.42088    1.000
    C46      C        0.37500    0.14334    0.48849    1.000
    C47      C        0.37460    0.05133    0.46656    1.000
    C48      C        0.39140    0.12988    0.13829    1.000
    O1       O        0.71874    0.70453    0.57848    1.000
    O2       O        0.00807    0.65653    0.52528    1.000
    O3       O        0.78280    0.29948    0.85891    1.000
    O4       O        0.00760    0.39130    0.92411    1.000
    O5       O        0.78126    0.29547    0.07848    1.000
    O6       O        0.49193    0.34347    0.02528    1.000
    O7       O        0.71720    0.70052    0.35891    1.000
    O8       O        0.49240    0.60870    0.42411    1.000
    O9       O        0.28126    0.20453    0.92152    1.000
    O10      O        0.99193    0.15653    0.97472    1.000
    O11      O        0.21720    0.79948    0.64109    1.000
    O12      O        0.99240    0.89130    0.57589    1.000
    O13      O        0.21874    0.79547    0.42152    1.000
    O14      O        0.50807    0.84347    0.47472    1.000
    O15      O        0.28280    0.20052    0.14109    1.000
    O16      O        0.50760    0.10870    0.07589    1.000
