# CIF file generated by openbabel 3.1.0, see https://openbabel.org
data_I
_chemical_name_common 'CAZFOA_clean'
_cell_length_a 10.3547
_cell_length_b 10.5172
_cell_length_c 12.39
_cell_angle_alpha 70.646
_cell_angle_beta 89.451
_cell_angle_gamma 63.849
_space_group_name_H-M_alt 'P 1'
_space_group_name_Hall 'P 1'
loop_
    _symmetry_equiv_pos_as_xyz
    x,y,z
loop_
    _atom_site_label
    _atom_site_type_symbol
    _atom_site_fract_x
    _atom_site_fract_y
    _atom_site_fract_z
    _atom_site_occupancy
    Co1      Co       0.00000    0.00000    0.00000    1.000
    Co2      Co       0.00000    0.50000    0.00000    1.000
    H1       H        0.38670    0.46290    0.77520    1.000
    H2       H        0.71730    0.45210    0.01930    1.000
    H3       H        0.84150    0.65980    0.75180    1.000
    H4       H        0.66580    0.67870    0.62940    1.000
    H5       H        0.53840    0.46350    0.90430    1.000
    H6       H        0.40110    0.77950    0.33400    1.000
    H7       H        0.28480    0.89370    0.14760    1.000
    H8       H        0.98920    0.76160    0.23380    1.000
    H9       H        0.09560    0.64790    0.42500    1.000
    H10      H        0.68910    0.01240    0.32130    1.000
    H11      H        0.81370    0.94570    0.49840    1.000
    H12      H        0.06110    0.13000    0.34410    1.000
    H13      H        0.61330    0.53710    0.22480    1.000
    H14      H        0.28270    0.54790    0.98070    1.000
    H15      H        0.15850    0.34020    0.24820    1.000
    H16      H        0.33420    0.32130    0.37060    1.000
    H17      H        0.46160    0.53650    0.09570    1.000
    H18      H        0.59890    0.22050    0.66600    1.000
    H19      H        0.71520    0.10630    0.85240    1.000
    H20      H        0.01080    0.23840    0.76620    1.000
    H21      H        0.90440    0.35210    0.57500    1.000
    H22      H        0.31090    0.98760    0.67870    1.000
    H23      H        0.18630    0.05430    0.50160    1.000
    H24      H        0.93890    0.87000    0.65590    1.000
    C1       C        0.70860    0.49600    0.93930    1.000
    C2       C        0.78120    0.61750    0.78320    1.000
    C3       C        0.67430    0.63110    0.70890    1.000
    C4       C        0.58040    0.57450    0.75170    1.000
    C5       C        0.59910    0.50430    0.87100    1.000
    C6       C        0.46750    0.58550    0.67340    1.000
    C7       C        0.33030    0.63950    0.52350    1.000
    C8       C        0.25950    0.70490    0.40170    1.000
    C9       C        0.31560    0.77680    0.31600    1.000
    C10      C        0.24550    0.84450    0.20420    1.000
    C11      C        0.07170    0.76780    0.25480    1.000
    C12      C        0.13530    0.69830    0.36980    1.000
    C13      C        0.73180    0.11130    0.11250    1.000
    C14      C        0.80970    0.09490    0.22290    1.000
    C15      C        0.76870    0.03060    0.32500    1.000
    C16      C        0.84200    0.99280    0.43180    1.000
    C17      C        0.95760    0.02380    0.44190    1.000
    C18      C        0.98990    0.09990    0.33980    1.000
    C19      C        0.92100    0.13360    0.23090    1.000
    C20      C        0.96780    0.21820    0.12770    1.000
    C21      C        0.29140    0.50400    0.06070    1.000
    C22      C        0.21880    0.38250    0.21680    1.000
    C23      C        0.32570    0.36890    0.29110    1.000
    C24      C        0.41960    0.42550    0.24830    1.000
    C25      C        0.40090    0.49570    0.12900    1.000
    C26      C        0.53250    0.41450    0.32660    1.000
    C27      C        0.66970    0.36050    0.47650    1.000
    C28      C        0.74050    0.29510    0.59830    1.000
    C29      C        0.68440    0.22320    0.68400    1.000
    C30      C        0.75450    0.15550    0.79580    1.000
    C31      C        0.92830    0.23220    0.74520    1.000
    C32      C        0.86470    0.30170    0.63020    1.000
    C33      C        0.26820    0.88870    0.88750    1.000
    C34      C        0.19030    0.90510    0.77710    1.000
    C35      C        0.23130    0.96940    0.67500    1.000
    C36      C        0.15800    0.00720    0.56820    1.000
    C37      C        0.04240    0.97620    0.55810    1.000
    C38      C        0.01010    0.90010    0.66020    1.000
    C39      C        0.07900    0.86640    0.76910    1.000
    C40      C        0.03220    0.78180    0.87230    1.000
    N1       N        0.38480    0.51780    0.70550    1.000
    N2       N        0.29600    0.54990    0.61010    1.000
    N3       N        0.43640    0.66370    0.55890    1.000
    N4       N        0.80340    0.54730    0.89770    1.000
    N5       N        0.12290    0.84350    0.17190    1.000
    N6       N        0.61520    0.48220    0.29450    1.000
    N7       N        0.70400    0.45010    0.38990    1.000
    N8       N        0.56360    0.33630    0.44110    1.000
    N9       N        0.19660    0.45270    0.10230    1.000
    N10      N        0.87710    0.15650    0.82810    1.000
    O1       O        0.97930    0.33000    0.13300    1.000
    O2       O        0.99410    0.17720    0.04150    1.000
    O3       O        0.59620    0.18890    0.09210    1.000
    O4       O        0.80420    0.03540    0.05370    1.000
    O5       O        0.02070    0.67000    0.86700    1.000
    O6       O        0.00590    0.82280    0.95850    1.000
    O7       O        0.40380    0.81110    0.90790    1.000
    O8       O        0.19580    0.96460    0.94630    1.000
