# CIF file generated by openbabel 3.1.0, see https://openbabel.org
data_I
_chemical_name_common 'ic502730y_si_002_clean'
_cell_length_a 12.6011
_cell_length_b 13.7364
_cell_length_c 17.2874
_cell_angle_alpha 90
_cell_angle_beta 90
_cell_angle_gamma 90
_space_group_name_H-M_alt 'P 1'
_space_group_name_Hall 'P 1'
loop_
    _symmetry_equiv_pos_as_xyz
    x,y,z
loop_
    _atom_site_label
    _atom_site_type_symbol
    _atom_site_fract_x
    _atom_site_fract_y
    _atom_site_fract_z
    _atom_site_occupancy
    V1       V        0.75024    0.12483    0.75061    1.000
    V2       V        0.24976    0.12483    0.25061    1.000
    V3       V        0.75024    0.37517    0.75061    1.000
    V4       V        0.75024    0.87517    0.74939    1.000
    V5       V        0.75024    0.62483    0.74939    1.000
    V6       V        0.24976    0.62483    0.24939    1.000
    V7       V        0.24976    0.87517    0.24939    1.000
    V8       V        0.24976    0.37517    0.25061    1.000
    H1       H        0.06850    0.10370    0.45450    1.000
    H2       H        0.55310    0.85360    0.94690    1.000
    H3       H        0.54760    0.64480    0.55840    1.000
    H4       H        0.55310    0.14640    0.55310    1.000
    H5       H        0.44690    0.35360    0.05310    1.000
    H6       H        0.96810    0.10430    0.56670    1.000
    H7       H        0.44690    0.85360    0.44690    1.000
    H8       H        0.03190    0.60430    0.43330    1.000
    H9       H        0.11160    0.50000    0.25000    1.000
    H10      H        0.44690    0.14640    0.05310    1.000
    H11      H        0.06850    0.89630    0.04550    1.000
    H12      H        0.06850    0.60370    0.04550    1.000
    H13      H        0.38600    0.75000    0.26800    1.000
    H14      H        0.55310    0.35360    0.55310    1.000
    H15      H        0.96810    0.60430    0.93330    1.000
    H16      H        0.06850    0.39630    0.45450    1.000
    H17      H        0.88840    0.50000    0.75000    1.000
    H18      H        0.54760    0.85520    0.55840    1.000
    H19      H        0.96810    0.89570    0.93330    1.000
    H20      H        0.93150    0.89630    0.54550    1.000
    H21      H        0.03190    0.39570    0.06670    1.000
    H22      H        0.45240    0.64480    0.05840    1.000
    H23      H        0.38600    0.25000    0.23200    1.000
    H24      H        0.61400    0.25000    0.73200    1.000
    H25      H        0.93150    0.39630    0.95450    1.000
    H26      H        0.45240    0.14480    0.44160    1.000
    H27      H        0.54760    0.35520    0.94160    1.000
    H28      H        0.44690    0.64640    0.44690    1.000
    H29      H        0.03190    0.89570    0.43330    1.000
    H30      H        0.93150    0.60370    0.54550    1.000
    H31      H        0.88840    0.00000    0.75000    1.000
    H32      H        0.96810    0.39570    0.56670    1.000
    H33      H        0.11160    0.00000    0.25000    1.000
    H34      H        0.61400    0.75000    0.76800    1.000
    H35      H        0.54760    0.14480    0.94160    1.000
    H36      H        0.45240    0.85520    0.05840    1.000
    H37      H        0.45240    0.35520    0.44160    1.000
    H38      H        0.93150    0.10370    0.95450    1.000
    H39      H        0.03190    0.10430    0.06670    1.000
    H40      H        0.55310    0.64640    0.94690    1.000
    C1       C        0.92400    0.75000    0.55780    1.000
    C2       C        0.07600    0.75000    0.05780    1.000
    C3       C        0.46850    0.91250    0.46816    1.000
    C4       C        0.55950    0.99931    0.93275    1.000
    C5       C        0.47170    0.58650    0.03500    1.000
    C6       C        0.95250    0.83760    0.52343    1.000
    C7       C        0.47170    0.08650    0.46500    1.000
    C8       C        0.44050    0.50069    0.43275    1.000
    C9       C        0.86350    0.75000    0.63210    1.000
    C10      C        0.88630    0.75000    0.85330    1.000
    C11      C        0.53150    0.91250    0.96816    1.000
    C12      C        0.55950    0.49931    0.56725    1.000
    C13      C        0.53150    0.41250    0.53184    1.000
    C14      C        0.62530    0.50205    0.86073    1.000
    C15      C        0.13650    0.25000    0.36790    1.000
    C16      C        0.46850    0.41250    0.03184    1.000
    C17      C        0.55950    0.50069    0.93275    1.000
    C18      C        0.53150    0.08750    0.53184    1.000
    C19      C        0.55950    0.00069    0.56725    1.000
    C20      C        0.04750    0.83760    0.02343    1.000
    C21      C        0.98780    0.66280    0.95620    1.000
    C22      C        0.11370    0.75000    0.35330    1.000
    C23      C        0.37470    0.99795    0.36073    1.000
    C24      C        0.13650    0.75000    0.13210    1.000
    C25      C        0.47170    0.41350    0.46500    1.000
    C26      C        0.01220    0.66280    0.45620    1.000
    C27      C        0.95740    0.25000    0.57690    1.000
    C28      C        0.62530    0.99795    0.86073    1.000
    C29      C        0.95250    0.66240    0.52343    1.000
    C30      C        0.52830    0.58650    0.53500    1.000
    C31      C        0.04750    0.16240    0.47657    1.000
    C32      C        0.95250    0.33760    0.97657    1.000
    C33      C        0.46850    0.58750    0.46816    1.000
    C34      C        0.37470    0.49795    0.13927    1.000
    C35      C        0.88630    0.25000    0.64670    1.000
    C36      C        0.01220    0.33720    0.04380    1.000
    C37      C        0.98780    0.33720    0.54380    1.000
    C38      C        0.52830    0.08650    0.96500    1.000
    C39      C        0.98780    0.83720    0.95620    1.000
    C40      C        0.11370    0.25000    0.14670    1.000
    C41      C        0.46850    0.08750    0.03184    1.000
    C42      C        0.07600    0.25000    0.44220    1.000
    C43      C        0.01220    0.83720    0.45620    1.000
    C44      C        0.44050    0.00069    0.06725    1.000
    C45      C        0.95740    0.75000    0.92310    1.000
    C46      C        0.62530    0.49795    0.63927    1.000
    C47      C        0.04260    0.25000    0.07690    1.000
    C48      C        0.62530    0.00205    0.63927    1.000
    C49      C        0.92400    0.25000    0.94220    1.000
    C50      C        0.44050    0.49931    0.06725    1.000
    C51      C        0.53150    0.58750    0.96816    1.000
    C52      C        0.37470    0.50205    0.36073    1.000
    C53      C        0.04260    0.75000    0.42310    1.000
    C54      C        0.47170    0.91350    0.03500    1.000
    C55      C        0.52830    0.41350    0.96500    1.000
    C56      C        0.44050    0.99931    0.43275    1.000
    C57      C        0.98780    0.16280    0.54380    1.000
    C58      C        0.01220    0.16280    0.04380    1.000
    C59      C        0.86350    0.25000    0.86790    1.000
    C60      C        0.52830    0.91350    0.53500    1.000
    C61      C        0.37470    0.00205    0.13927    1.000
    C62      C        0.95250    0.16240    0.97657    1.000
    C63      C        0.04750    0.66240    0.02343    1.000
    C64      C        0.04750    0.33760    0.47657    1.000
    O1       O        0.15957    0.33121    0.33933    1.000
    O2       O        0.17810    0.50000    0.25000    1.000
    O3       O        0.65661    0.58341    0.83734    1.000
    O4       O        0.85921    0.83124    0.82689    1.000
    O5       O        0.14079    0.66876    0.32689    1.000
    O6       O        0.84043    0.83121    0.66067    1.000
    O7       O        0.35626    0.07822    0.32863    1.000
    O8       O        0.65661    0.41659    0.66266    1.000
    O9       O        0.34339    0.91659    0.33734    1.000
    O10      O        0.34339    0.41659    0.16266    1.000
    O11      O        0.14079    0.16876    0.17311    1.000
    O12      O        0.14079    0.33124    0.17311    1.000
    O13      O        0.34339    0.08341    0.16266    1.000
    O14      O        0.65661    0.08341    0.66266    1.000
    O15      O        0.65661    0.91659    0.83734    1.000
    O16      O        0.15957    0.66879    0.16067    1.000
    O17      O        0.35626    0.42178    0.32863    1.000
    O18      O        0.82190    0.50000    0.75000    1.000
    O19      O        0.64374    0.57822    0.67137    1.000
    O20      O        0.34339    0.58341    0.33734    1.000
    O21      O        0.14079    0.83124    0.32689    1.000
    O22      O        0.85921    0.66876    0.82689    1.000
    O23      O        0.64374    0.92178    0.67137    1.000
    O24      O        0.15957    0.16879    0.33933    1.000
    O25      O        0.64374    0.07822    0.82863    1.000
    O26      O        0.84043    0.33121    0.83933    1.000
    O27      O        0.85921    0.16876    0.67311    1.000
    O28      O        0.84043    0.66879    0.66067    1.000
    O29      O        0.35626    0.92178    0.17137    1.000
    O30      O        0.15957    0.83121    0.16067    1.000
    O31      O        0.35626    0.57822    0.17137    1.000
    O32      O        0.82190    0.00000    0.75000    1.000
    O33      O        0.67910    0.75000    0.75342    1.000
    O34      O        0.32090    0.25000    0.24658    1.000
    O35      O        0.17810    0.00000    0.25000    1.000
    O36      O        0.67910    0.25000    0.74658    1.000
    O37      O        0.32090    0.75000    0.25342    1.000
    O38      O        0.85921    0.33124    0.67311    1.000
    O39      O        0.64374    0.42178    0.82863    1.000
    O40      O        0.84043    0.16879    0.83933    1.000
