# CIF file generated by openbabel 3.1.0, see https://openbabel.org
data_I
_chemical_name_common 'image0'
_cell_length_a 16.137
_cell_length_b 7.605
_cell_length_c 16.14
_cell_angle_alpha 90
_cell_angle_beta 119.984
_cell_angle_gamma 90
_space_group_name_H-M_alt 'P 1'
_space_group_name_Hall 'P 1'
loop_
    _symmetry_equiv_pos_as_xyz
    x,y,z
loop_
    _atom_site_label
    _atom_site_type_symbol
    _atom_site_fract_x
    _atom_site_fract_y
    _atom_site_fract_z
    _atom_site_occupancy
    Mn1      Mn       0.18312    0.37670    0.33396    1.000
    Mn2      Mn       0.33400    0.87660    0.15101    1.000
    Mn3      Mn       0.84923    0.87659    0.18289    1.000
    Mn4      Mn       0.66678    0.35722    0.33332    1.000
    C1       C        0.01450    0.61250    0.28900    1.000
    H1       H        0.99670    0.57820    0.22560    1.000
    C2       C        0.22650    0.63190    0.21690    1.000
    H2       H        0.28830    0.62460    0.27210    1.000
    C3       C        0.73970    0.60260    0.23610    1.000
    H3       H        0.79680    0.59500    0.29630    1.000
    C4       C        0.30050    0.60580    0.50750    1.000
    H4       H        0.24230    0.59310    0.50830    1.000
    C5       C        0.27420    0.61180    0.98610    1.000
    H5       H        0.22910    0.57730    0.00430    1.000
    C6       C        0.49570    0.60370    0.26040    1.000
    H6       H        0.49760    0.59410    0.20260    1.000
    C7       C        0.01170    0.13150    0.22790    1.000
    H7       H        0.02000    0.12190    0.29030    1.000
    C8       C        0.79380    0.10550    0.29880    1.000
    H8       H        0.73570    0.09500    0.23970    1.000
    C9       C        0.78290    0.63000    0.01050    1.000
    H9       H        0.72880    0.61810    0.01870    1.000
    C10      C        0.50670    0.10570    0.20740    1.000
    H10      H        0.50690    0.09420    0.26610    1.000
    C11      C        0.76540    0.60320    0.50570    1.000
    H11      H        0.70630    0.59250    0.50480    1.000
    C12      C        0.28880    0.11270    0.27400    1.000
    H12      H        0.22530    0.07950    0.22800    1.000
    O1       O        0.21850    0.72400    0.14820    1.000
    O2       O        0.08200    0.53060    0.35630    1.000
    O3       O        0.73980    0.70570    0.17520    1.000
    O4       O        0.96840    0.73660    0.29890    1.000
    O5       O        0.67180    0.51030    0.22430    1.000
    O6       O        0.16140    0.55070    0.21880    1.000
    O7       O        0.07040    0.22380    0.21840    1.000
    O8       O        0.77600    0.51150    0.44780    1.000
    O9       O        0.86450    0.02180    0.30730    1.000
    O10      O        0.56920    0.20370    0.20690    1.000
    O11      O        0.35620    0.03080    0.27460    1.000
    O12      O        0.30720    0.52240    0.44320    1.000
    O13      O        0.85200    0.72400    0.07020    1.000
    O14      O        0.33070    0.73680    0.03120    1.000
    O15      O        0.27460    0.53090    0.91850    1.000
    O16      O        0.79280    0.20290    0.36190    1.000
    O17      O        0.44340    0.02110    0.13620    1.000
    O18      O        0.55270    0.51210    0.32810    1.000
    O19      O        0.94260    0.05020    0.16160    1.000
    O20      O        0.78130    0.55310    0.94230    1.000
    O21      O        0.36200    0.70210    0.56920    1.000
    O22      O        0.82450    0.70650    0.56420    1.000
    O23      O        0.43600    0.70750    0.26030    1.000
    O24      O        0.29940    0.23670    0.33050    1.000
    Mn5      Mn       0.81688    0.87670    0.66604    1.000
    Mn6      Mn       0.66600    0.37660    0.84899    1.000
    Mn7      Mn       0.15077    0.37659    0.81711    1.000
    Mn8      Mn       0.33322    0.85722    0.66668    1.000
    C13      C        0.98550    0.11250    0.71100    1.000
    H13      H        0.00330    0.07820    0.77440    1.000
    C14      C        0.77350    0.13190    0.78310    1.000
    H14      H        0.71170    0.12460    0.72790    1.000
    C15      C        0.26030    0.10260    0.76390    1.000
    H15      H        0.20320    0.09500    0.70370    1.000
    C16      C        0.69950    0.10580    0.49250    1.000
    H16      H        0.75770    0.09310    0.49170    1.000
    C17      C        0.72580    0.11180    0.01390    1.000
    H17      H        0.77090    0.07730    0.99570    1.000
    C18      C        0.50430    0.10370    0.73960    1.000
    H18      H        0.50240    0.09410    0.79740    1.000
    C19      C        0.98830    0.63150    0.77210    1.000
    H19      H        0.98000    0.62190    0.70970    1.000
    C20      C        0.20620    0.60550    0.70120    1.000
    H20      H        0.26430    0.59500    0.76030    1.000
    C21      C        0.21710    0.13000    0.98950    1.000
    H21      H        0.27120    0.11810    0.98130    1.000
    C22      C        0.49330    0.60570    0.79260    1.000
    H22      H        0.49310    0.59420    0.73390    1.000
    C23      C        0.23460    0.10320    0.49430    1.000
    H23      H        0.29370    0.09250    0.49520    1.000
    C24      C        0.71120    0.61270    0.72600    1.000
    H24      H        0.77470    0.57950    0.77200    1.000
    O25      O        0.78150    0.22400    0.85180    1.000
    O26      O        0.91800    0.03060    0.64370    1.000
    O27      O        0.26020    0.20570    0.82480    1.000
    O28      O        0.03160    0.23660    0.70110    1.000
    O29      O        0.32820    0.01030    0.77570    1.000
    O30      O        0.83860    0.05070    0.78120    1.000
    O31      O        0.92960    0.72380    0.78160    1.000
    O32      O        0.22400    0.01150    0.55220    1.000
    O33      O        0.13550    0.52180    0.69270    1.000
    O34      O        0.43080    0.70370    0.79310    1.000
    O35      O        0.64380    0.53080    0.72540    1.000
    O36      O        0.69280    0.02240    0.55680    1.000
    O37      O        0.14800    0.22400    0.92980    1.000
    O38      O        0.66930    0.23680    0.96880    1.000
    O39      O        0.72540    0.03090    0.08150    1.000
    O40      O        0.20720    0.70290    0.63810    1.000
    O41      O        0.55660    0.52110    0.86380    1.000
    O42      O        0.44730    0.01210    0.67190    1.000
    O43      O        0.05740    0.55020    0.83840    1.000
    O44      O        0.21870    0.05310    0.05770    1.000
    O45      O        0.63800    0.20210    0.43080    1.000
    O46      O        0.17550    0.20650    0.43580    1.000
    O47      O        0.56400    0.20750    0.73970    1.000
    O48      O        0.70060    0.73670    0.66950    1.000
