# CIF file generated by openbabel 3.1.0, see https://openbabel.org
data_I
_chemical_name_common 'OJAKOA_clean'
_cell_length_a 9.0167
_cell_length_b 15.1313
_cell_length_c 16.8284
_cell_angle_alpha 90
_cell_angle_beta 90
_cell_angle_gamma 103.841
_space_group_name_H-M_alt 'P 1'
_space_group_name_Hall 'P 1'
loop_
    _symmetry_equiv_pos_as_xyz
    x,y,z
loop_
    _atom_site_label
    _atom_site_type_symbol
    _atom_site_fract_x
    _atom_site_fract_y
    _atom_site_fract_z
    _atom_site_occupancy
    Pr1      Pr       0.43271    0.03854    0.89087    1.000
    Pr2      Pr       0.06729    0.96146    0.39087    1.000
    Pr3      Pr       0.56729    0.96146    0.10913    1.000
    Pr4      Pr       0.93271    0.03854    0.60913    1.000
    H1       H        0.99560    0.86150    0.99120    1.000
    H2       H        0.96690    0.91190    0.06900    1.000
    H3       H        0.14630    0.78370    0.94670    1.000
    H4       H        0.24230    0.66560    0.90000    1.000
    H5       H        0.13460    0.53220    0.10510    1.000
    H6       H        0.03480    0.64870    0.15100    1.000
    H7       H        0.15120    0.42050    0.04360    1.000
    H8       H        0.65160    0.36570    0.76000    1.000
    H9       H        0.56820    0.49270    0.79170    1.000
    H10      H        0.45030    0.26960    0.05310    1.000
    H11      H        0.28860    0.20180    0.05840    1.000
    H12      H        0.65210    0.24020    0.72160    1.000
    H13      H        0.77810    0.22550    0.78120    1.000
    H14      H        0.50440    0.13850    0.49120    1.000
    H15      H        0.53310    0.08810    0.56900    1.000
    H16      H        0.35370    0.21630    0.44670    1.000
    H17      H        0.25770    0.33440    0.40000    1.000
    H18      H        0.36540    0.46780    0.60510    1.000
    H19      H        0.46520    0.35130    0.65100    1.000
    H20      H        0.34880    0.57950    0.54360    1.000
    H21      H        0.84840    0.63430    0.26000    1.000
    H22      H        0.93180    0.50730    0.29170    1.000
    H23      H        0.04970    0.73040    0.55310    1.000
    H24      H        0.21140    0.79820    0.55840    1.000
    H25      H        0.84790    0.75980    0.22160    1.000
    H26      H        0.72190    0.77450    0.28120    1.000
    H27      H        0.00440    0.13850    0.00880    1.000
    H28      H        0.03310    0.08810    0.93100    1.000
    H29      H        0.85370    0.21630    0.05330    1.000
    H30      H        0.75770    0.33440    0.10000    1.000
    H31      H        0.86540    0.46780    0.89490    1.000
    H32      H        0.96520    0.35130    0.84900    1.000
    H33      H        0.84880    0.57950    0.95640    1.000
    H34      H        0.34840    0.63430    0.24000    1.000
    H35      H        0.43180    0.50730    0.20830    1.000
    H36      H        0.54970    0.73040    0.94690    1.000
    H37      H        0.71140    0.79820    0.94160    1.000
    H38      H        0.34790    0.75980    0.27840    1.000
    H39      H        0.22190    0.77450    0.21880    1.000
    H40      H        0.49560    0.86150    0.50880    1.000
    H41      H        0.46690    0.91190    0.43100    1.000
    H42      H        0.64630    0.78370    0.55330    1.000
    H43      H        0.74230    0.66560    0.60000    1.000
    H44      H        0.63460    0.53220    0.39490    1.000
    H45      H        0.53480    0.64870    0.34900    1.000
    H46      H        0.65120    0.42050    0.45640    1.000
    H47      H        0.15160    0.36570    0.74000    1.000
    H48      H        0.06820    0.49270    0.70830    1.000
    H49      H        0.95030    0.26960    0.44690    1.000
    H50      H        0.78860    0.20180    0.44160    1.000
    H51      H        0.15210    0.24020    0.77840    1.000
    H52      H        0.27810    0.22550    0.71880    1.000
    C1       C        0.19400    0.93770    0.03970    1.000
    C2       C        0.03280    0.87740    0.04470    1.000
    C3       C        0.08290    0.72960    0.05460    1.000
    C4       C        0.14410    0.73340    0.97890    1.000
    C5       C        0.20210    0.66210    0.95110    1.000
    C6       C        0.20220    0.58560    0.99690    1.000
    C7       C        0.13770    0.58240    0.07280    1.000
    C8       C        0.07840    0.65280    0.10060    1.000
    C9       C        0.37770    0.52050    0.90390    1.000
    C10      C        0.26640    0.50910    0.96840    1.000
    C11      C        0.22320    0.42680    0.00310    1.000
    C12      C        0.37780    0.35770    0.92480    1.000
    C13      C        0.43190    0.28010    0.90890    1.000
    C14      C        0.53040    0.28310    0.84490    1.000
    C15      C        0.58280    0.36370    0.80150    1.000
    C16      C        0.53230    0.43940    0.82050    1.000
    C17      C        0.42850    0.43840    0.88170    1.000
    C18      C        0.39170    0.20940    0.03820    1.000
    C19      C        0.46370    0.13770    0.07370    1.000
    C20      C        0.67350    0.20170    0.76410    1.000
    C21      C        0.65460    0.10590    0.73370    1.000
    C22      C        0.30600    0.06230    0.53970    1.000
    C23      C        0.46720    0.12260    0.54470    1.000
    C24      C        0.41710    0.27040    0.55460    1.000
    C25      C        0.35590    0.26660    0.47890    1.000
    C26      C        0.29790    0.33790    0.45110    1.000
    C27      C        0.29780    0.41440    0.49690    1.000
    C28      C        0.36230    0.41760    0.57280    1.000
    C29      C        0.42160    0.34720    0.60060    1.000
    C30      C        0.12230    0.47950    0.40390    1.000
    C31      C        0.23360    0.49090    0.46840    1.000
    C32      C        0.27680    0.57320    0.50310    1.000
    C33      C        0.12220    0.64230    0.42480    1.000
    C34      C        0.06810    0.71990    0.40890    1.000
    C35      C        0.96960    0.71690    0.34490    1.000
    C36      C        0.91720    0.63630    0.30150    1.000
    C37      C        0.96770    0.56060    0.32050    1.000
    C38      C        0.07150    0.56160    0.38170    1.000
    C39      C        0.10830    0.79060    0.53820    1.000
    C40      C        0.03630    0.86230    0.57370    1.000
    C41      C        0.82650    0.79830    0.26410    1.000
    C42      C        0.84540    0.89410    0.23370    1.000
    C43      C        0.80600    0.06230    0.96030    1.000
    C44      C        0.96720    0.12260    0.95530    1.000
    C45      C        0.91710    0.27040    0.94540    1.000
    C46      C        0.85590    0.26660    0.02110    1.000
    C47      C        0.79790    0.33790    0.04890    1.000
    C48      C        0.79780    0.41440    0.00310    1.000
    C49      C        0.86230    0.41760    0.92720    1.000
    C50      C        0.92160    0.34720    0.89940    1.000
    C51      C        0.62230    0.47950    0.09610    1.000
    C52      C        0.73360    0.49090    0.03160    1.000
    C53      C        0.77680    0.57320    0.99690    1.000
    C54      C        0.62220    0.64230    0.07520    1.000
    C55      C        0.56810    0.71990    0.09110    1.000
    C56      C        0.46960    0.71690    0.15510    1.000
    C57      C        0.41720    0.63630    0.19850    1.000
    C58      C        0.46770    0.56060    0.17950    1.000
    C59      C        0.57150    0.56160    0.11830    1.000
    C60      C        0.60830    0.79060    0.96180    1.000
    C61      C        0.53630    0.86230    0.92630    1.000
    C62      C        0.32650    0.79830    0.23590    1.000
    C63      C        0.34540    0.89410    0.26630    1.000
    C64      C        0.69400    0.93770    0.46030    1.000
    C65      C        0.53280    0.87740    0.45530    1.000
    C66      C        0.58290    0.72960    0.44540    1.000
    C67      C        0.64410    0.73340    0.52110    1.000
    C68      C        0.70210    0.66210    0.54890    1.000
    C69      C        0.70220    0.58560    0.50310    1.000
    C70      C        0.63770    0.58240    0.42720    1.000
    C71      C        0.57840    0.65280    0.39940    1.000
    C72      C        0.87770    0.52050    0.59610    1.000
    C73      C        0.76640    0.50910    0.53160    1.000
    C74      C        0.72320    0.42680    0.49690    1.000
    C75      C        0.87780    0.35770    0.57520    1.000
    C76      C        0.93190    0.28010    0.59110    1.000
    C77      C        0.03040    0.28310    0.65510    1.000
    C78      C        0.08280    0.36370    0.69850    1.000
    C79      C        0.03230    0.43940    0.67950    1.000
    C80      C        0.92850    0.43840    0.61830    1.000
    C81      C        0.89170    0.20940    0.46180    1.000
    C82      C        0.96370    0.13770    0.42630    1.000
    C83      C        0.17350    0.20170    0.73590    1.000
    C84      C        0.15460    0.10590    0.76630    1.000
    O1       O        0.21820    0.99270    0.98290    1.000
    O2       O        0.28670    0.93010    0.09330    1.000
    O3       O        0.02210    0.79530    0.08925    1.000
    O4       O        0.42960    0.59290    0.86910    1.000
    O5       O        0.27460    0.35200    0.98453    1.000
    O6       O        0.38800    0.20080    0.95140    1.000
    O7       O        0.46300    0.12930    0.14560    1.000
    O8       O        0.52210    0.09040    0.02730    1.000
    O9       O        0.57210    0.20345    0.82935    1.000
    O10      O        0.74800    0.09890    0.68040    1.000
    O11      O        0.54820    0.04420    0.75841    1.000
    O12      O        0.28180    0.00730    0.48290    1.000
    O13      O        0.21330    0.06990    0.59330    1.000
    O14      O        0.47790    0.20470    0.58925    1.000
    O15      O        0.07040    0.40710    0.36910    1.000
    O16      O        0.22540    0.64800    0.48453    1.000
    O17      O        0.11200    0.79920    0.45140    1.000
    O18      O        0.03700    0.87070    0.64560    1.000
    O19      O        0.97790    0.90960    0.52730    1.000
    O20      O        0.92790    0.79655    0.32935    1.000
    O21      O        0.75200    0.90110    0.18040    1.000
    O22      O        0.95180    0.95580    0.25841    1.000
    O23      O        0.78180    0.00730    0.01710    1.000
    O24      O        0.71330    0.06990    0.90670    1.000
    O25      O        0.97790    0.20470    0.91075    1.000
    O26      O        0.57040    0.40710    0.13090    1.000
    O27      O        0.72540    0.64800    0.01547    1.000
    O28      O        0.61200    0.79920    0.04860    1.000
    O29      O        0.53700    0.87070    0.85440    1.000
    O30      O        0.47790    0.90960    0.97270    1.000
    O31      O        0.42790    0.79655    0.17065    1.000
    O32      O        0.25200    0.90110    0.31960    1.000
    O33      O        0.45180    0.95580    0.24159    1.000
    O34      O        0.71820    0.99270    0.51710    1.000
    O35      O        0.78670    0.93010    0.40670    1.000
    O36      O        0.52210    0.79530    0.41075    1.000
    O37      O        0.92960    0.59290    0.63090    1.000
    O38      O        0.77460    0.35200    0.51547    1.000
    O39      O        0.88800    0.20080    0.54860    1.000
    O40      O        0.96300    0.12930    0.35440    1.000
    O41      O        0.02210    0.09040    0.47270    1.000
    O42      O        0.07210    0.20345    0.67065    1.000
    O43      O        0.24800    0.09890    0.81960    1.000
    O44      O        0.04820    0.04420    0.74159    1.000
