# CIF file generated by openbabel 3.1.0, see https://openbabel.org
data_I
_chemical_name_common 'image0'
_cell_length_a 9.54
_cell_length_b 19.812
_cell_length_c 11.151
_cell_angle_alpha 90
_cell_angle_beta 113.684
_cell_angle_gamma 90
_space_group_name_H-M_alt 'P 1'
_space_group_name_Hall 'P 1'
loop_
    _symmetry_equiv_pos_as_xyz
    x,y,z
loop_
    _atom_site_label
    _atom_site_type_symbol
    _atom_site_fract_x
    _atom_site_fract_y
    _atom_site_fract_z
    _atom_site_occupancy
    O1       O        0.65490    0.92740    0.00600    1.000
    O2       O        0.74070    0.89090    0.20950    1.000
    O3       O        0.04970    0.74950    0.33110    1.000
    O4       O        0.06140    0.84690    0.23690    1.000
    C1       C        0.63440    0.79200    0.92730    1.000
    H1       H        0.55580    0.82090    0.87760    1.000
    C2       C        0.74370    0.81610    0.04800    1.000
    C3       C        0.86320    0.77130    0.12100    1.000
    C4       C        0.71380    0.88340    0.09160    1.000
    C5       C        0.00200    0.79220    0.23680    1.000
    O5       O        0.15490    0.42740    0.00600    1.000
    O6       O        0.24070    0.39090    0.20950    1.000
    O7       O        0.54970    0.24950    0.33110    1.000
    O8       O        0.56140    0.34690    0.23690    1.000
    C6       C        0.13440    0.29200    0.92730    1.000
    H2       H        0.05580    0.32090    0.87760    1.000
    C7       C        0.24370    0.31610    0.04800    1.000
    C8       C        0.36320    0.27130    0.12100    1.000
    C9       C        0.21380    0.38340    0.09160    1.000
    C10      C        0.50200    0.29220    0.23680    1.000
    O9       O        0.34510    0.92740    0.99400    1.000
    O10      O        0.25930    0.89090    0.79050    1.000
    O11      O        0.95030    0.74950    0.66890    1.000
    O12      O        0.93860    0.84690    0.76310    1.000
    C11      C        0.36560    0.79200    0.07270    1.000
    H3       H        0.44420    0.82090    0.12240    1.000
    C12      C        0.25630    0.81610    0.95200    1.000
    C13      C        0.13680    0.77130    0.87900    1.000
    C14      C        0.28620    0.88340    0.90840    1.000
    C15      C        0.99800    0.79220    0.76320    1.000
    O13      O        0.84510    0.42740    0.99400    1.000
    O14      O        0.75930    0.39090    0.79050    1.000
    O15      O        0.45030    0.24950    0.66890    1.000
    O16      O        0.43860    0.34690    0.76310    1.000
    C16      C        0.86560    0.29200    0.07270    1.000
    H4       H        0.94420    0.32090    0.12240    1.000
    C17      C        0.75630    0.31610    0.95200    1.000
    C18      C        0.63680    0.27130    0.87900    1.000
    C19      C        0.78620    0.38340    0.90840    1.000
    C20      C        0.49800    0.29220    0.76320    1.000
    O17      O        0.34510    0.07260    0.99400    1.000
    O18      O        0.25930    0.10910    0.79050    1.000
    O19      O        0.95030    0.25050    0.66890    1.000
    O20      O        0.93860    0.15310    0.76310    1.000
    C21      C        0.36560    0.20800    0.07270    1.000
    H5       H        0.44420    0.17910    0.12240    1.000
    C22      C        0.25630    0.18390    0.95200    1.000
    C23      C        0.13680    0.22870    0.87900    1.000
    C24      C        0.28620    0.11660    0.90840    1.000
    C25      C        0.99800    0.20780    0.76320    1.000
    O21      O        0.84510    0.57260    0.99400    1.000
    O22      O        0.75930    0.60910    0.79050    1.000
    O23      O        0.45030    0.75050    0.66890    1.000
    O24      O        0.43860    0.65310    0.76310    1.000
    C26      C        0.86560    0.70800    0.07270    1.000
    H6       H        0.94420    0.67910    0.12240    1.000
    C27      C        0.75630    0.68390    0.95200    1.000
    C28      C        0.63680    0.72870    0.87900    1.000
    C29      C        0.78620    0.61660    0.90840    1.000
    C30      C        0.49800    0.70780    0.76320    1.000
    O25      O        0.65490    0.07260    0.00600    1.000
    O26      O        0.74070    0.10910    0.20950    1.000
    O27      O        0.04970    0.25050    0.33110    1.000
    O28      O        0.06140    0.15310    0.23690    1.000
    C31      C        0.63440    0.20800    0.92730    1.000
    H7       H        0.55580    0.17910    0.87760    1.000
    C32      C        0.74370    0.18390    0.04800    1.000
    C33      C        0.86320    0.22870    0.12100    1.000
    C34      C        0.71380    0.11660    0.09160    1.000
    C35      C        0.00200    0.20780    0.23680    1.000
    O29      O        0.15490    0.57260    0.00600    1.000
    O30      O        0.24070    0.60910    0.20950    1.000
    O31      O        0.54970    0.75050    0.33110    1.000
    O32      O        0.56140    0.65310    0.23690    1.000
    C36      C        0.13440    0.70800    0.92730    1.000
    H8       H        0.05580    0.67910    0.87760    1.000
    C37      C        0.24370    0.68390    0.04800    1.000
    C38      C        0.36320    0.72870    0.12100    1.000
    C39      C        0.21380    0.61660    0.09160    1.000
    C40      C        0.50200    0.70780    0.23680    1.000
    Ni1      Ni       0.00000    0.50000    0.00000    1.000
    Ni2      Ni       0.50000    0.00000    0.00000    1.000
    Ni3      Ni       0.25000    0.75000    0.50000    1.000
    Ni4      Ni       0.75000    0.75000    0.50000    1.000
    Ni5      Ni       0.75000    0.25000    0.50000    1.000
    Ni6      Ni       0.25000    0.25000    0.50000    1.000
