# CIF file generated by openbabel 3.1.0, see https://openbabel.org
data_I
_chemical_name_common 'QOZPOM_clean'
_cell_length_a 10.3265
_cell_length_b 14.1976
_cell_length_c 18.2477
_cell_angle_alpha 90
_cell_angle_beta 93.759
_cell_angle_gamma 90
_space_group_name_H-M_alt 'P 1'
_space_group_name_Hall 'P 1'
loop_
    _symmetry_equiv_pos_as_xyz
    x,y,z
loop_
    _atom_site_label
    _atom_site_type_symbol
    _atom_site_fract_x
    _atom_site_fract_y
    _atom_site_fract_z
    _atom_site_occupancy
    Zn1      Zn       0.21948    0.98943    0.23927    1.000
    Zn2      Zn       0.71948    0.51057    0.23927    1.000
    Zn3      Zn       0.28052    0.48943    0.76073    1.000
    Zn4      Zn       0.78052    0.01057    0.76073    1.000
    H1       H        0.86050    0.62400    0.02580    1.000
    H2       H        0.54940    0.22180    0.57700    1.000
    H3       H        0.91440    0.71680    0.24230    1.000
    H4       H        0.16010    0.79250    0.78950    1.000
    H5       H        0.63950    0.12400    0.97420    1.000
    H6       H        0.90800    0.26590    0.05120    1.000
    H7       H        0.65430    0.36420    0.10880    1.000
    H8       H        0.13950    0.37600    0.97420    1.000
    H9       H        0.08560    0.28320    0.75770    1.000
    H10      H        0.65550    0.63550    0.37710    1.000
    H11      H        0.32640    0.10420    0.47900    1.000
    H12      H        0.09200    0.73410    0.94880    1.000
    H13      H        0.04940    0.27820    0.57700    1.000
    H14      H        0.66010    0.70750    0.78950    1.000
    H15      H        0.58560    0.21680    0.75770    1.000
    H16      H        0.40800    0.23410    0.05120    1.000
    H17      H        0.84450    0.13550    0.62290    1.000
    H18      H        0.34570    0.63580    0.89120    1.000
    H19      H        0.83990    0.20750    0.21050    1.000
    H20      H        0.36050    0.87600    0.02580    1.000
    H21      H        0.95060    0.72180    0.42300    1.000
    H22      H        0.59200    0.76590    0.94880    1.000
    H23      H        0.17360    0.60420    0.52100    1.000
    H24      H        0.67360    0.89580    0.52100    1.000
    H25      H        0.45060    0.77820    0.42300    1.000
    H26      H        0.84570    0.86420    0.89120    1.000
    H27      H        0.15430    0.13580    0.10880    1.000
    H28      H        0.15550    0.86450    0.37710    1.000
    H29      H        0.34450    0.36450    0.62290    1.000
    H30      H        0.41440    0.78320    0.24230    1.000
    H31      H        0.82640    0.39580    0.47900    1.000
    H32      H        0.33990    0.29250    0.21050    1.000
    C1       C        0.58820    0.36246    0.14259    1.000
    C2       C        0.43350    0.00142    0.06437    1.000
    C3       C        0.56900    0.99840    0.56849    1.000
    C4       C        0.47450    0.73670    0.26030    1.000
    C5       C        0.91180    0.86246    0.85741    1.000
    C6       C        0.60300    0.93810    0.51267    1.000
    C7       C        0.91690    0.57364    0.01537    1.000
    C8       C        0.41180    0.63754    0.85741    1.000
    C9       C        0.48280    0.92495    0.95134    1.000
    C10      C        0.10550    0.84350    0.33471    1.000
    C11      C        0.96560    0.43988    0.55469    1.000
    C12      C        0.41650    0.32420    0.19825    1.000
    C13      C        0.85890    0.49676    0.13221    1.000
    C14      C        0.57620    0.87050    0.38866    1.000
    C15      C        0.89450    0.15650    0.66529    1.000
    C16      C        0.08350    0.82420    0.80175    1.000
    C17      C        0.02550    0.23670    0.73970    1.000
    C18      C        0.43100    0.00160    0.43151    1.000
    C19      C        0.03440    0.56012    0.44531    1.000
    C20      C        0.39450    0.34350    0.66529    1.000
    C21      C        0.01720    0.42495    0.04866    1.000
    C22      C        0.56650    0.99858    0.93563    1.000
    C23      C        0.95410    0.65553    0.89891    1.000
    C24      C        0.93350    0.49858    0.06437    1.000
    C25      C        0.14110    0.50324    0.86779    1.000
    C26      C        0.35630    0.00050    0.35763    1.000
    C27      C        0.07620    0.62950    0.38866    1.000
    C28      C        0.93100    0.49840    0.43151    1.000
    C29      C        0.08310    0.42636    0.98463    1.000
    C30      C        0.14370    0.50050    0.64237    1.000
    C31      C        0.08820    0.13754    0.14259    1.000
    C32      C        0.91650    0.17580    0.19825    1.000
    C33      C        0.52550    0.26330    0.73970    1.000
    C34      C        0.35890    0.00324    0.13221    1.000
    C35      C        0.89700    0.43810    0.48733    1.000
    C36      C        0.46560    0.06012    0.55469    1.000
    C37      C        0.98280    0.57505    0.95134    1.000
    C38      C        0.85630    0.49950    0.35763    1.000
    C39      C        0.42380    0.12950    0.61134    1.000
    C40      C        0.64370    0.99950    0.64237    1.000
    C41      C        0.06650    0.50142    0.93563    1.000
    C42      C        0.64110    0.99676    0.86779    1.000
    C43      C        0.92380    0.37050    0.61134    1.000
    C44      C        0.51720    0.07505    0.04866    1.000
    C45      C        0.97450    0.76330    0.26030    1.000
    C46      C        0.54590    0.15553    0.10109    1.000
    C47      C        0.10300    0.56190    0.51267    1.000
    C48      C        0.04590    0.34447    0.10109    1.000
    C49      C        0.58350    0.67580    0.80175    1.000
    C50      C        0.06900    0.50160    0.56849    1.000
    C51      C        0.39700    0.06190    0.48733    1.000
    C52      C        0.58310    0.07364    0.98463    1.000
    C53      C        0.45410    0.84447    0.89891    1.000
    C54      C        0.41690    0.92636    0.01537    1.000
    C55      C        0.60550    0.65650    0.33471    1.000
    C56      C        0.53440    0.93988    0.44531    1.000
    N1       N        0.02800    0.89263    0.76393    1.000
    N2       N        0.51550    0.69514    0.86168    1.000
    N3       N        0.01550    0.80486    0.86168    1.000
    N4       N        0.96650    0.26827    0.08845    1.000
    N5       N        0.97200    0.10737    0.23607    1.000
    N6       N        0.10670    0.88022    0.26870    1.000
    N7       N        0.97560    0.17090    0.77944    1.000
    N8       N        0.89330    0.11978    0.73130    1.000
    N9       N        0.52440    0.67090    0.22056    1.000
    N10      N        0.47560    0.32910    0.77944    1.000
    N11      N        0.98450    0.19514    0.13832    1.000
    N12      N        0.49540    0.20995    0.61120    1.000
    N13      N        0.99540    0.29005    0.61120    1.000
    N14      N        0.03350    0.73173    0.91155    1.000
    N15      N        0.02180    0.77174    0.33193    1.000
    N16      N        0.08330    0.08433    0.20073    1.000
    N17      N        0.53350    0.76827    0.91155    1.000
    N18      N        0.46650    0.23173    0.08845    1.000
    N19      N        0.97820    0.22826    0.66807    1.000
    N20      N        0.02440    0.82910    0.22056    1.000
    N21      N        0.47200    0.39263    0.23607    1.000
    N22      N        0.60670    0.61978    0.26870    1.000
    N23      N        0.47820    0.27174    0.66807    1.000
    N24      N        0.91670    0.91567    0.79927    1.000
    N25      N        0.58330    0.41567    0.20073    1.000
    N26      N        0.50460    0.79005    0.38880    1.000
    N27      N        0.41670    0.58433    0.79927    1.000
    N28      N        0.48450    0.30486    0.13832    1.000
    N29      N        0.39330    0.38022    0.73130    1.000
    N30      N        0.52180    0.72826    0.33193    1.000
    N31      N        0.00460    0.70995    0.38880    1.000
    N32      N        0.52800    0.60737    0.76393    1.000
    O1       O        0.13237    0.57394    0.82687    1.000
    O2       O        0.28730    0.93372    0.14459    1.000
    O3       O        0.66770    0.88113    0.35131    1.000
    O4       O        0.33230    0.11887    0.64869    1.000
    O5       O        0.86763    0.42606    0.17313    1.000
    O6       O        0.86111    0.65561    0.85486    1.000
    O7       O        0.21270    0.43372    0.85541    1.000
    O8       O        0.26580    0.05560    0.34601    1.000
    O9       O        0.63237    0.92606    0.82687    1.000
    O10      O        0.36763    0.07394    0.17313    1.000
    O11      O        0.11380    0.44316    0.68975    1.000
    O12      O        0.38620    0.94316    0.31025    1.000
    O13      O        0.78730    0.56628    0.14459    1.000
    O14      O        0.88620    0.55684    0.31025    1.000
    O15      O        0.73420    0.94440    0.65399    1.000
    O16      O        0.76580    0.44440    0.34601    1.000
    O17      O        0.71270    0.06628    0.85541    1.000
    O18      O        0.83230    0.38113    0.64869    1.000
    O19      O        0.61380    0.05684    0.68975    1.000
    O20      O        0.16770    0.61887    0.35131    1.000
    O21      O        0.13889    0.34439    0.14514    1.000
    O22      O        0.36111    0.84439    0.85486    1.000
    O23      O        0.63889    0.15561    0.14514    1.000
    O24      O        0.23420    0.55560    0.65399    1.000
