# CIF file generated by openbabel 3.1.0, see https://openbabel.org
data_I
_chemical_name_common 'image0'
_cell_length_a 38.8298
_cell_length_b 27.7339
_cell_length_c 27.0455
_cell_angle_alpha 90
_cell_angle_beta 133.545
_cell_angle_gamma 90
_space_group_name_H-M_alt 'P 1'
_space_group_name_Hall 'P 1'
loop_
    _symmetry_equiv_pos_as_xyz
    x,y,z
loop_
    _atom_site_label
    _atom_site_type_symbol
    _atom_site_fract_x
    _atom_site_fract_y
    _atom_site_fract_z
    _atom_site_occupancy
    C1       C        0.10443    0.82848    0.80010    1.000
    C2       C        0.10644    0.87295    0.83520    1.000
    C3       C        0.06502    0.89785    0.80550    1.000
    H1       H        0.03630    0.88900    0.76280    1.000
    C4       C        0.06710    0.93617    0.84050    1.000
    H2       H        0.03940    0.95290    0.82070    1.000
    C5       C        0.10880    0.94994    0.90330    1.000
    C6       C        0.14980    0.92590    0.93090    1.000
    H3       H        0.17860    0.93510    0.97340    1.000
    C7       C        0.14853    0.88863    0.89660    1.000
    H4       H        0.17670    0.87370    0.91520    1.000
    C8       C        0.08150    0.06790    0.94340    1.000
    C9       C        0.08310    0.03000    0.90990    1.000
    H5       H        0.06600    0.03310    0.86370    1.000
    C10      C        0.10770    0.99110    0.94180    1.000
    C11      C        0.13330    0.98350    0.01170    1.000
    C12      C        0.13780    0.01960    0.05070    1.000
    H6       H        0.15730    0.01520    0.09740    1.000
    C13      C        0.11190    0.06500    0.01870    1.000
    C14      C        0.06700    0.15260    0.06600    1.000
    H7       H        0.03820    0.16490    0.04840    1.000
    C15      C        0.06780    0.12150    0.02740    1.000
    H8       H        0.03980    0.11410    0.98310    1.000
    C16      C        0.10990    0.10120    0.05390    1.000
    C17      C        0.15130    0.11710    0.11630    1.000
    H9       H        0.18070    0.10700    0.13380    1.000
    C18      C        0.14800    0.14780    0.15160    1.000
    H10      H        0.17610    0.15730    0.19470    1.000
    C19      C        0.10719    0.16551    0.12870    1.000
    C20      C        0.10655    0.19976    0.17180    1.000
    C21      C        0.02920    0.11580    0.82990    1.000
    H11      H        0.00940    0.08860    0.80100    1.000
    H12      H        0.04980    0.12490    0.82310    1.000
    C22      C        0.99890    0.16070    0.82170    1.000
    H13      H        0.00420    0.16300    0.86230    1.000
    H14      H        0.96530    0.15480    0.78320    1.000
    C23      C        0.09325    0.67273    0.68670    1.000
    C24      C        0.09052    0.62939    0.65050    1.000
    C25      C        0.04714    0.60700    0.59700    1.000
    H15      H        0.01940    0.61740    0.58510    1.000
    C26      C        0.04560    0.56912    0.56190    1.000
    H16      H        0.01620    0.55630    0.52420    1.000
    C27      C        0.08540    0.55023    0.58080    1.000
    C28      C        0.12960    0.57200    0.63680    1.000
    H17      H        0.15760    0.55940    0.65160    1.000
    C29      C        0.13136    0.61160    0.66960    1.000
    H18      H        0.16040    0.62640    0.70480    1.000
    C30      C        0.08570    0.51090    0.54730    1.000
    C31      C        0.05190    0.50780    0.47560    1.000
    C32      C        0.11910    0.43550    0.54560    1.000
    C33      C        0.08721    0.43411    0.47620    1.000
    C34      C        0.05300    0.47040    0.43880    1.000
    H19      H        0.03140    0.47070    0.39150    1.000
    C35      C        0.11820    0.47150    0.58310    1.000
    H20      H        0.13860    0.46900    0.63020    1.000
    C36      C        0.13607    0.35708    0.42120    1.000
    H21      H        0.16510    0.35160    0.43430    1.000
    C37      C        0.13290    0.38943    0.45830    1.000
    H22      H        0.16030    0.40470    0.49650    1.000
    C38      C        0.09030    0.39886    0.43910    1.000
    C39      C        0.04999    0.37512    0.38160    1.000
    H23      H        0.02090    0.38110    0.36800    1.000
    C40      C        0.05159    0.34293    0.34390    1.000
    C41      C        0.09579    0.33375    0.36540    1.000
    C42      C        0.09794    0.30081    0.32290    1.000
    C43      C        0.97160    0.52990    0.35780    1.000
    H24      H        0.95450    0.50050    0.34850    1.000
    H25      H        0.97970    0.53150    0.33100    1.000
    C44      C        0.17510    0.39160    0.66000    1.000
    H26      H        0.19870    0.41640    0.68960    1.000
    H27      H        0.15040    0.39440    0.66050    1.000
    C45      C        0.19960    0.33930    0.68820    1.000
    H28      H        0.17970    0.31640    0.65100    1.000
    H29      H        0.22980    0.34060    0.70080    1.000
    C46      C        0.20750    0.32200    0.74160    1.000
    H30      H        0.22210    0.29080    0.75380    1.000
    H31      H        0.17790    0.31930    0.72960    1.000
    H32      H        0.22820    0.34350    0.77960    1.000
    C47      C        0.25160    0.25740    0.43670    1.000
    H33      H        0.23560    0.25570    0.45090    1.000
    C48      C        0.29600    0.25980    0.48250    1.000
    H34      H        0.31030    0.26480    0.52720    1.000
    C49      C        0.32460    0.25540    0.47010    1.000
    C50      C        0.29890    0.25340    0.40000    1.000
    H35      H        0.31470    0.25110    0.38550    1.000
    C51      C        0.24880    0.25490    0.35220    1.000
    H36      H        0.23200    0.25430    0.30600    1.000
    C52      C        0.45064    0.28150    0.62970    1.000
    H37      H        0.46700    0.29800    0.67050    1.000
    C53      C        0.40207    0.28184    0.58260    1.000
    H38      H        0.38610    0.29780    0.59210    1.000
    C54      C        0.37705    0.25881    0.52170    1.000
    C55      C        0.40299    0.23710    0.51060    1.000
    H39      H        0.38750    0.22220    0.46900    1.000
    C56      C        0.45070    0.23720    0.55980    1.000
    H40      H        0.46730    0.22140    0.55130    1.000
    N1       N        0.22502    0.25706    0.36983    1.000
    N2       N        0.47541    0.25852    0.61961    1.000
    O1       O        0.14216    0.80701    0.82959    1.000
    O2       O        0.06400    0.81538    0.74613    1.000
    O3       O        0.05760    0.10700    0.90890    1.000
    O4       O        0.16200    0.94220    0.04790    1.000
    O5       O        0.14482    0.21150    0.22938    1.000
    O6       O        0.06634    0.21246    0.14734    1.000
    O7       O        0.13321    0.68893    0.73586    1.000
    O8       O        0.05439    0.68991    0.66212    1.000
    O9       O        0.01470    0.54010    0.43600    1.000
    O10      O        0.15230    0.39960    0.58330    1.000
    O11      O        0.13839    0.29315    0.34518    1.000
    O12      O        0.06003    0.28353    0.26935    1.000
    Zn1      Zn       0.15234    0.25326    0.29736    1.000
    Zn2      Zn       0.04800    0.24670    0.19342    1.000
    C57      C        0.60443    0.32848    0.80010    1.000
    C58      C        0.60644    0.37295    0.83520    1.000
    C59      C        0.56502    0.39785    0.80550    1.000
    H41      H        0.53630    0.38900    0.76280    1.000
    C60      C        0.56710    0.43617    0.84050    1.000
    H42      H        0.53940    0.45290    0.82070    1.000
    C61      C        0.60880    0.44994    0.90330    1.000
    C62      C        0.64980    0.42590    0.93090    1.000
    H43      H        0.67860    0.43510    0.97340    1.000
    C63      C        0.64853    0.38863    0.89660    1.000
    H44      H        0.67670    0.37370    0.91520    1.000
    C64      C        0.58150    0.56790    0.94340    1.000
    C65      C        0.58310    0.53000    0.90990    1.000
    H45      H        0.56600    0.53310    0.86370    1.000
    C66      C        0.60770    0.49110    0.94180    1.000
    C67      C        0.63330    0.48350    0.01170    1.000
    C68      C        0.63780    0.51960    0.05070    1.000
    H46      H        0.65730    0.51520    0.09740    1.000
    C69      C        0.61190    0.56500    0.01870    1.000
    C70      C        0.56700    0.65260    0.06600    1.000
    H47      H        0.53820    0.66490    0.04840    1.000
    C71      C        0.56780    0.62150    0.02740    1.000
    H48      H        0.53980    0.61410    0.98310    1.000
    C72      C        0.60990    0.60120    0.05390    1.000
    C73      C        0.65130    0.61710    0.11630    1.000
    H49      H        0.68070    0.60700    0.13380    1.000
    C74      C        0.64800    0.64780    0.15160    1.000
    H50      H        0.67610    0.65730    0.19470    1.000
    C75      C        0.60719    0.66551    0.12870    1.000
    C76      C        0.60655    0.69976    0.17180    1.000
    C77      C        0.52920    0.61580    0.82990    1.000
    H51      H        0.50940    0.58860    0.80100    1.000
    H52      H        0.54980    0.62490    0.82310    1.000
    C78      C        0.49890    0.66070    0.82170    1.000
    H53      H        0.50420    0.66300    0.86230    1.000
    H54      H        0.46530    0.65480    0.78320    1.000
    C79      C        0.59325    0.17273    0.68670    1.000
    C80      C        0.59052    0.12939    0.65050    1.000
    C81      C        0.54714    0.10700    0.59700    1.000
    H55      H        0.51940    0.11740    0.58510    1.000
    C82      C        0.54560    0.06912    0.56190    1.000
    H56      H        0.51620    0.05630    0.52420    1.000
    C83      C        0.58540    0.05023    0.58080    1.000
    C84      C        0.62960    0.07200    0.63680    1.000
    H57      H        0.65760    0.05940    0.65160    1.000
    C85      C        0.63136    0.11160    0.66960    1.000
    H58      H        0.66040    0.12640    0.70480    1.000
    C86      C        0.58570    0.01090    0.54730    1.000
    C87      C        0.55190    0.00780    0.47560    1.000
    C88      C        0.61910    0.93550    0.54560    1.000
    C89      C        0.58721    0.93411    0.47620    1.000
    C90      C        0.55300    0.97040    0.43880    1.000
    H59      H        0.53140    0.97070    0.39150    1.000
    C91      C        0.61820    0.97150    0.58310    1.000
    H60      H        0.63860    0.96900    0.63020    1.000
    C92      C        0.63607    0.85708    0.42120    1.000
    H61      H        0.66510    0.85160    0.43430    1.000
    C93      C        0.63290    0.88943    0.45830    1.000
    H62      H        0.66030    0.90470    0.49650    1.000
    C94      C        0.59030    0.89886    0.43910    1.000
    C95      C        0.54999    0.87512    0.38160    1.000
    H63      H        0.52090    0.88110    0.36800    1.000
    C96      C        0.55159    0.84293    0.34390    1.000
    C97      C        0.59579    0.83375    0.36540    1.000
    C98      C        0.59794    0.80081    0.32290    1.000
    C99      C        0.47160    0.02990    0.35780    1.000
    H64      H        0.45450    0.00050    0.34850    1.000
    H65      H        0.47970    0.03150    0.33100    1.000
    C100     C        0.67510    0.89160    0.66000    1.000
    H66      H        0.69870    0.91640    0.68960    1.000
    H67      H        0.65040    0.89440    0.66050    1.000
    C101     C        0.69960    0.83930    0.68820    1.000
    H68      H        0.67970    0.81640    0.65100    1.000
    H69      H        0.72980    0.84060    0.70080    1.000
    C102     C        0.70750    0.82200    0.74160    1.000
    H70      H        0.72210    0.79080    0.75380    1.000
    H71      H        0.67790    0.81930    0.72960    1.000
    H72      H        0.72820    0.84350    0.77960    1.000
    C103     C        0.75160    0.75740    0.43670    1.000
    H73      H        0.73560    0.75570    0.45090    1.000
    C104     C        0.79600    0.75980    0.48250    1.000
    H74      H        0.81030    0.76480    0.52720    1.000
    C105     C        0.82460    0.75540    0.47010    1.000
    C106     C        0.79890    0.75340    0.40000    1.000
    H75      H        0.81470    0.75110    0.38550    1.000
    C107     C        0.74880    0.75490    0.35220    1.000
    H76      H        0.73200    0.75430    0.30600    1.000
    C108     C        0.95064    0.78150    0.62970    1.000
    H77      H        0.96700    0.79800    0.67050    1.000
    C109     C        0.90207    0.78184    0.58260    1.000
    H78      H        0.88610    0.79780    0.59210    1.000
    C110     C        0.87705    0.75881    0.52170    1.000
    C111     C        0.90299    0.73710    0.51060    1.000
    H79      H        0.88750    0.72220    0.46900    1.000
    C112     C        0.95070    0.73720    0.55980    1.000
    H80      H        0.96730    0.72140    0.55130    1.000
    N3       N        0.72502    0.75706    0.36983    1.000
    N4       N        0.97541    0.75852    0.61961    1.000
    O13      O        0.64216    0.30701    0.82959    1.000
    O14      O        0.56400    0.31538    0.74613    1.000
    O15      O        0.55760    0.60700    0.90890    1.000
    O16      O        0.66200    0.44220    0.04790    1.000
    O17      O        0.64482    0.71150    0.22938    1.000
    O18      O        0.56634    0.71246    0.14734    1.000
    O19      O        0.63321    0.18893    0.73586    1.000
    O20      O        0.55439    0.18991    0.66212    1.000
    O21      O        0.51470    0.04010    0.43600    1.000
    O22      O        0.65230    0.89960    0.58330    1.000
    O23      O        0.63839    0.79315    0.34518    1.000
    O24      O        0.56003    0.78353    0.26935    1.000
    Zn3      Zn       0.65234    0.75326    0.29736    1.000
    Zn4      Zn       0.54800    0.74670    0.19342    1.000
    C113     C        0.10443    0.17152    0.30010    1.000
    C114     C        0.10644    0.12705    0.33520    1.000
    C115     C        0.06502    0.10215    0.30550    1.000
    H81      H        0.03630    0.11100    0.26280    1.000
    C116     C        0.06710    0.06383    0.34050    1.000
    H82      H        0.03940    0.04710    0.32070    1.000
    C117     C        0.10880    0.05006    0.40330    1.000
    C118     C        0.14980    0.07410    0.43090    1.000
    H83      H        0.17860    0.06490    0.47340    1.000
    C119     C        0.14853    0.11137    0.39660    1.000
    H84      H        0.17670    0.12630    0.41520    1.000
    C120     C        0.08150    0.93210    0.44340    1.000
    C121     C        0.08310    0.97000    0.40990    1.000
    H85      H        0.06600    0.96690    0.36370    1.000
    C122     C        0.10770    0.00890    0.44180    1.000
    C123     C        0.13330    0.01650    0.51170    1.000
    C124     C        0.13780    0.98040    0.55070    1.000
    H86      H        0.15730    0.98480    0.59740    1.000
    C125     C        0.11190    0.93500    0.51870    1.000
    C126     C        0.06700    0.84740    0.56600    1.000
    H87      H        0.03820    0.83510    0.54840    1.000
    C127     C        0.06780    0.87850    0.52740    1.000
    H88      H        0.03980    0.88590    0.48310    1.000
    C128     C        0.10990    0.89880    0.55390    1.000
    C129     C        0.15130    0.88290    0.61630    1.000
    H89      H        0.18070    0.89300    0.63380    1.000
    C130     C        0.14800    0.85220    0.65160    1.000
    H90      H        0.17610    0.84270    0.69470    1.000
    C131     C        0.10719    0.83449    0.62870    1.000
    C132     C        0.10655    0.80024    0.67180    1.000
    C133     C        0.02920    0.88420    0.32990    1.000
    H91      H        0.00940    0.91140    0.30100    1.000
    H92      H        0.04980    0.87510    0.32310    1.000
    C134     C        0.99890    0.83930    0.32170    1.000
    H93      H        0.00420    0.83700    0.36230    1.000
    H94      H        0.96530    0.84520    0.28320    1.000
    C135     C        0.09325    0.32727    0.18670    1.000
    C136     C        0.09052    0.37061    0.15050    1.000
    C137     C        0.04714    0.39300    0.09700    1.000
    H95      H        0.01940    0.38260    0.08510    1.000
    C138     C        0.04560    0.43088    0.06190    1.000
    H96      H        0.01620    0.44370    0.02420    1.000
    C139     C        0.08540    0.44977    0.08080    1.000
    C140     C        0.12960    0.42800    0.13680    1.000
    H97      H        0.15760    0.44060    0.15160    1.000
    C141     C        0.13136    0.38840    0.16960    1.000
    H98      H        0.16040    0.37360    0.20480    1.000
    C142     C        0.08570    0.48910    0.04730    1.000
    C143     C        0.05190    0.49220    0.97560    1.000
    C144     C        0.11910    0.56450    0.04560    1.000
    C145     C        0.08721    0.56589    0.97620    1.000
    C146     C        0.05300    0.52960    0.93880    1.000
    H99      H        0.03140    0.52930    0.89150    1.000
    C147     C        0.11820    0.52850    0.08310    1.000
    H100     H        0.13860    0.53100    0.13020    1.000
    C148     C        0.13607    0.64292    0.92120    1.000
    H101     H        0.16510    0.64840    0.93430    1.000
    C149     C        0.13290    0.61057    0.95830    1.000
    H102     H        0.16030    0.59530    0.99650    1.000
    C150     C        0.09030    0.60114    0.93910    1.000
    C151     C        0.04999    0.62488    0.88160    1.000
    H103     H        0.02090    0.61890    0.86800    1.000
    C152     C        0.05159    0.65707    0.84390    1.000
    C153     C        0.09579    0.66625    0.86540    1.000
    C154     C        0.09794    0.69919    0.82290    1.000
    C155     C        0.97160    0.47010    0.85780    1.000
    H104     H        0.95450    0.49950    0.84850    1.000
    H105     H        0.97970    0.46850    0.83100    1.000
    C156     C        0.17510    0.60840    0.16000    1.000
    H106     H        0.19870    0.58360    0.18960    1.000
    H107     H        0.15040    0.60560    0.16050    1.000
    C157     C        0.19960    0.66070    0.18820    1.000
    H108     H        0.17970    0.68360    0.15100    1.000
    H109     H        0.22980    0.65940    0.20080    1.000
    C158     C        0.20750    0.67800    0.24160    1.000
    H110     H        0.22210    0.70920    0.25380    1.000
    H111     H        0.17790    0.68070    0.22960    1.000
    H112     H        0.22820    0.65650    0.27960    1.000
    C159     C        0.25160    0.74260    0.93670    1.000
    H113     H        0.23560    0.74430    0.95090    1.000
    C160     C        0.29600    0.74020    0.98250    1.000
    H114     H        0.31030    0.73520    0.02720    1.000
    C161     C        0.32460    0.74460    0.97010    1.000
    C162     C        0.29890    0.74660    0.90000    1.000
    H115     H        0.31470    0.74890    0.88550    1.000
    C163     C        0.24880    0.74510    0.85220    1.000
    H116     H        0.23200    0.74570    0.80600    1.000
    C164     C        0.45064    0.71850    0.12970    1.000
    H117     H        0.46700    0.70200    0.17050    1.000
    C165     C        0.40207    0.71816    0.08260    1.000
    H118     H        0.38610    0.70220    0.09210    1.000
    C166     C        0.37705    0.74119    0.02170    1.000
    C167     C        0.40299    0.76290    0.01060    1.000
    H119     H        0.38750    0.77780    0.96900    1.000
    C168     C        0.45070    0.76280    0.05980    1.000
    H120     H        0.46730    0.77860    0.05130    1.000
    N5       N        0.22502    0.74294    0.86983    1.000
    N6       N        0.47541    0.74148    0.11961    1.000
    O25      O        0.14216    0.19299    0.32959    1.000
    O26      O        0.06400    0.18462    0.24613    1.000
    O27      O        0.05760    0.89300    0.40890    1.000
    O28      O        0.16200    0.05780    0.54790    1.000
    O29      O        0.14482    0.78850    0.72938    1.000
    O30      O        0.06634    0.78754    0.64734    1.000
    O31      O        0.13321    0.31107    0.23586    1.000
    O32      O        0.05439    0.31009    0.16212    1.000
    O33      O        0.01470    0.45990    0.93600    1.000
    O34      O        0.15230    0.60040    0.08330    1.000
    O35      O        0.13839    0.70685    0.84518    1.000
    O36      O        0.06003    0.71647    0.76935    1.000
    Zn5      Zn       0.15234    0.74674    0.79736    1.000
    Zn6      Zn       0.04800    0.75330    0.69342    1.000
    C169     C        0.60443    0.67152    0.30010    1.000
    C170     C        0.60644    0.62705    0.33520    1.000
    C171     C        0.56502    0.60215    0.30550    1.000
    H121     H        0.53630    0.61100    0.26280    1.000
    C172     C        0.56710    0.56383    0.34050    1.000
    H122     H        0.53940    0.54710    0.32070    1.000
    C173     C        0.60880    0.55006    0.40330    1.000
    C174     C        0.64980    0.57410    0.43090    1.000
    H123     H        0.67860    0.56490    0.47340    1.000
    C175     C        0.64853    0.61137    0.39660    1.000
    H124     H        0.67670    0.62630    0.41520    1.000
    C176     C        0.58150    0.43210    0.44340    1.000
    C177     C        0.58310    0.47000    0.40990    1.000
    H125     H        0.56600    0.46690    0.36370    1.000
    C178     C        0.60770    0.50890    0.44180    1.000
    C179     C        0.63330    0.51650    0.51170    1.000
    C180     C        0.63780    0.48040    0.55070    1.000
    H126     H        0.65730    0.48480    0.59740    1.000
    C181     C        0.61190    0.43500    0.51870    1.000
    C182     C        0.56700    0.34740    0.56600    1.000
    H127     H        0.53820    0.33510    0.54840    1.000
    C183     C        0.56780    0.37850    0.52740    1.000
    H128     H        0.53980    0.38590    0.48310    1.000
    C184     C        0.60990    0.39880    0.55390    1.000
    C185     C        0.65130    0.38290    0.61630    1.000
    H129     H        0.68070    0.39300    0.63380    1.000
    C186     C        0.64800    0.35220    0.65160    1.000
    H130     H        0.67610    0.34270    0.69470    1.000
    C187     C        0.60719    0.33449    0.62870    1.000
    C188     C        0.60655    0.30024    0.67180    1.000
    C189     C        0.52920    0.38420    0.32990    1.000
    H131     H        0.50940    0.41140    0.30100    1.000
    H132     H        0.54980    0.37510    0.32310    1.000
    C190     C        0.49890    0.33930    0.32170    1.000
    H133     H        0.50420    0.33700    0.36230    1.000
    H134     H        0.46530    0.34520    0.28320    1.000
    C191     C        0.59325    0.82727    0.18670    1.000
    C192     C        0.59052    0.87061    0.15050    1.000
    C193     C        0.54714    0.89300    0.09700    1.000
    H135     H        0.51940    0.88260    0.08510    1.000
    C194     C        0.54560    0.93088    0.06190    1.000
    H136     H        0.51620    0.94370    0.02420    1.000
    C195     C        0.58540    0.94977    0.08080    1.000
    C196     C        0.62960    0.92800    0.13680    1.000
    H137     H        0.65760    0.94060    0.15160    1.000
    C197     C        0.63136    0.88840    0.16960    1.000
    H138     H        0.66040    0.87360    0.20480    1.000
    C198     C        0.58570    0.98910    0.04730    1.000
    C199     C        0.55190    0.99220    0.97560    1.000
    C200     C        0.61910    0.06450    0.04560    1.000
    C201     C        0.58721    0.06589    0.97620    1.000
    C202     C        0.55300    0.02960    0.93880    1.000
    H139     H        0.53140    0.02930    0.89150    1.000
    C203     C        0.61820    0.02850    0.08310    1.000
    H140     H        0.63860    0.03100    0.13020    1.000
    C204     C        0.63607    0.14292    0.92120    1.000
    H141     H        0.66510    0.14840    0.93430    1.000
    C205     C        0.63290    0.11057    0.95830    1.000
    H142     H        0.66030    0.09530    0.99650    1.000
    C206     C        0.59030    0.10114    0.93910    1.000
    C207     C        0.54999    0.12488    0.88160    1.000
    H143     H        0.52090    0.11890    0.86800    1.000
    C208     C        0.55159    0.15707    0.84390    1.000
    C209     C        0.59579    0.16625    0.86540    1.000
    C210     C        0.59794    0.19919    0.82290    1.000
    C211     C        0.47160    0.97010    0.85780    1.000
    H144     H        0.45450    0.99950    0.84850    1.000
    H145     H        0.47970    0.96850    0.83100    1.000
    C212     C        0.67510    0.10840    0.16000    1.000
    H146     H        0.69870    0.08360    0.18960    1.000
    H147     H        0.65040    0.10560    0.16050    1.000
    C213     C        0.69960    0.16070    0.18820    1.000
    H148     H        0.67970    0.18360    0.15100    1.000
    H149     H        0.72980    0.15940    0.20080    1.000
    C214     C        0.70750    0.17800    0.24160    1.000
    H150     H        0.72210    0.20920    0.25380    1.000
    H151     H        0.67790    0.18070    0.22960    1.000
    H152     H        0.72820    0.15650    0.27960    1.000
    C215     C        0.75160    0.24260    0.93670    1.000
    H153     H        0.73560    0.24430    0.95090    1.000
    C216     C        0.79600    0.24020    0.98250    1.000
    H154     H        0.81030    0.23520    0.02720    1.000
    C217     C        0.82460    0.24460    0.97010    1.000
    C218     C        0.79890    0.24660    0.90000    1.000
    H155     H        0.81470    0.24890    0.88550    1.000
    C219     C        0.74880    0.24510    0.85220    1.000
    H156     H        0.73200    0.24570    0.80600    1.000
    C220     C        0.95064    0.21850    0.12970    1.000
    H157     H        0.96700    0.20200    0.17050    1.000
    C221     C        0.90207    0.21816    0.08260    1.000
    H158     H        0.88610    0.20220    0.09210    1.000
    C222     C        0.87705    0.24119    0.02170    1.000
    C223     C        0.90299    0.26290    0.01060    1.000
    H159     H        0.88750    0.27780    0.96900    1.000
    C224     C        0.95070    0.26280    0.05980    1.000
    H160     H        0.96730    0.27860    0.05130    1.000
    N7       N        0.72502    0.24294    0.86983    1.000
    N8       N        0.97541    0.24148    0.11961    1.000
    O37      O        0.64216    0.69299    0.32959    1.000
    O38      O        0.56400    0.68462    0.24613    1.000
    O39      O        0.55760    0.39300    0.40890    1.000
    O40      O        0.66200    0.55780    0.54790    1.000
    O41      O        0.64482    0.28850    0.72938    1.000
    O42      O        0.56634    0.28754    0.64734    1.000
    O43      O        0.63321    0.81107    0.23586    1.000
    O44      O        0.55439    0.81009    0.16212    1.000
    O45      O        0.51470    0.95990    0.93600    1.000
    O46      O        0.65230    0.10040    0.08330    1.000
    O47      O        0.63839    0.20685    0.84518    1.000
    O48      O        0.56003    0.21647    0.76935    1.000
    Zn7      Zn       0.65234    0.24674    0.79736    1.000
    Zn8      Zn       0.54800    0.25330    0.69342    1.000
    C225     C        0.89557    0.82848    0.69990    1.000
    C226     C        0.89356    0.87295    0.66480    1.000
    C227     C        0.93498    0.89785    0.69450    1.000
    H161     H        0.96370    0.88900    0.73720    1.000
    C228     C        0.93290    0.93617    0.65950    1.000
    H162     H        0.96060    0.95290    0.67930    1.000
    C229     C        0.89120    0.94994    0.59670    1.000
    C230     C        0.85020    0.92590    0.56910    1.000
    H163     H        0.82140    0.93510    0.52660    1.000
    C231     C        0.85147    0.88863    0.60340    1.000
    H164     H        0.82330    0.87370    0.58480    1.000
    C232     C        0.91850    0.06790    0.55660    1.000
    C233     C        0.91690    0.03000    0.59010    1.000
    H165     H        0.93400    0.03310    0.63630    1.000
    C234     C        0.89230    0.99110    0.55820    1.000
    C235     C        0.86670    0.98350    0.48830    1.000
    C236     C        0.86220    0.01960    0.44930    1.000
    H166     H        0.84270    0.01520    0.40260    1.000
    C237     C        0.88810    0.06500    0.48130    1.000
    C238     C        0.93300    0.15260    0.43400    1.000
    H167     H        0.96180    0.16490    0.45160    1.000
    C239     C        0.93220    0.12150    0.47260    1.000
    H168     H        0.96020    0.11410    0.51690    1.000
    C240     C        0.89010    0.10120    0.44610    1.000
    C241     C        0.84870    0.11710    0.38370    1.000
    H169     H        0.81930    0.10700    0.36620    1.000
    C242     C        0.85200    0.14780    0.34840    1.000
    H170     H        0.82390    0.15730    0.30530    1.000
    C243     C        0.89281    0.16551    0.37130    1.000
    C244     C        0.89345    0.19976    0.32820    1.000
    C245     C        0.97080    0.11580    0.67010    1.000
    H171     H        0.99060    0.08860    0.69900    1.000
    H172     H        0.95020    0.12490    0.67690    1.000
    C246     C        0.00110    0.16070    0.67830    1.000
    H173     H        0.99580    0.16300    0.63770    1.000
    H174     H        0.03470    0.15480    0.71680    1.000
    C247     C        0.90675    0.67273    0.81330    1.000
    C248     C        0.90948    0.62939    0.84950    1.000
    C249     C        0.95286    0.60700    0.90300    1.000
    H175     H        0.98060    0.61740    0.91490    1.000
    C250     C        0.95440    0.56912    0.93810    1.000
    H176     H        0.98380    0.55630    0.97580    1.000
    C251     C        0.91460    0.55023    0.91920    1.000
    C252     C        0.87040    0.57200    0.86320    1.000
    H177     H        0.84240    0.55940    0.84840    1.000
    C253     C        0.86864    0.61160    0.83040    1.000
    H178     H        0.83960    0.62640    0.79520    1.000
    C254     C        0.91430    0.51090    0.95270    1.000
    C255     C        0.94810    0.50780    0.02440    1.000
    C256     C        0.88090    0.43550    0.95440    1.000
    C257     C        0.91279    0.43411    0.02380    1.000
    C258     C        0.94700    0.47040    0.06120    1.000
    H179     H        0.96860    0.47070    0.10850    1.000
    C259     C        0.88180    0.47150    0.91690    1.000
    H180     H        0.86140    0.46900    0.86980    1.000
    C260     C        0.86393    0.35708    0.07880    1.000
    H181     H        0.83490    0.35160    0.06570    1.000
    C261     C        0.86710    0.38943    0.04170    1.000
    H182     H        0.83970    0.40470    0.00350    1.000
    C262     C        0.90970    0.39886    0.06090    1.000
    C263     C        0.95001    0.37512    0.11840    1.000
    H183     H        0.97910    0.38110    0.13200    1.000
    C264     C        0.94841    0.34293    0.15610    1.000
    C265     C        0.90421    0.33375    0.13460    1.000
    C266     C        0.90206    0.30081    0.17710    1.000
    C267     C        0.02840    0.52990    0.14220    1.000
    H184     H        0.04550    0.50050    0.15150    1.000
    H185     H        0.02030    0.53150    0.16900    1.000
    C268     C        0.82490    0.39160    0.84000    1.000
    H186     H        0.80130    0.41640    0.81040    1.000
    H187     H        0.84960    0.39440    0.83950    1.000
    C269     C        0.80040    0.33930    0.81180    1.000
    H188     H        0.82030    0.31640    0.84900    1.000
    H189     H        0.77020    0.34060    0.79920    1.000
    C270     C        0.79250    0.32200    0.75840    1.000
    H190     H        0.77790    0.29080    0.74620    1.000
    H191     H        0.82210    0.31930    0.77040    1.000
    H192     H        0.77180    0.34350    0.72040    1.000
    C271     C        0.74840    0.25740    0.06330    1.000
    H193     H        0.76440    0.25570    0.04910    1.000
    C272     C        0.70400    0.25980    0.01750    1.000
    H194     H        0.68970    0.26480    0.97280    1.000
    C273     C        0.67540    0.25540    0.02990    1.000
    C274     C        0.70110    0.25340    0.10000    1.000
    H195     H        0.68530    0.25110    0.11450    1.000
    C275     C        0.75120    0.25490    0.14780    1.000
    H196     H        0.76800    0.25430    0.19400    1.000
    C276     C        0.54936    0.28150    0.87030    1.000
    H197     H        0.53300    0.29800    0.82950    1.000
    C277     C        0.59793    0.28184    0.91740    1.000
    H198     H        0.61390    0.29780    0.90790    1.000
    C278     C        0.62295    0.25881    0.97830    1.000
    C279     C        0.59701    0.23710    0.98940    1.000
    H199     H        0.61250    0.22220    0.03100    1.000
    C280     C        0.54930    0.23720    0.94020    1.000
    H200     H        0.53270    0.22140    0.94870    1.000
    N9       N        0.77498    0.25706    0.13017    1.000
    N10      N        0.52459    0.25852    0.88039    1.000
    O49      O        0.85784    0.80701    0.67041    1.000
    O50      O        0.93600    0.81538    0.75387    1.000
    O51      O        0.94240    0.10700    0.59110    1.000
    O52      O        0.83800    0.94220    0.45210    1.000
    O53      O        0.85518    0.21150    0.27062    1.000
    O54      O        0.93366    0.21246    0.35266    1.000
    O55      O        0.86679    0.68893    0.76414    1.000
    O56      O        0.94561    0.68991    0.83788    1.000
    O57      O        0.98530    0.54010    0.06400    1.000
    O58      O        0.84770    0.39960    0.91670    1.000
    O59      O        0.86161    0.29315    0.15482    1.000
    O60      O        0.93997    0.28353    0.23065    1.000
    Zn9      Zn       0.84766    0.25326    0.20264    1.000
    Zn10     Zn       0.95200    0.24670    0.30658    1.000
    C281     C        0.39557    0.32848    0.69990    1.000
    C282     C        0.39356    0.37295    0.66480    1.000
    C283     C        0.43498    0.39785    0.69450    1.000
    H201     H        0.46370    0.38900    0.73720    1.000
    C284     C        0.43290    0.43617    0.65950    1.000
    H202     H        0.46060    0.45290    0.67930    1.000
    C285     C        0.39120    0.44994    0.59670    1.000
    C286     C        0.35020    0.42590    0.56910    1.000
    H203     H        0.32140    0.43510    0.52660    1.000
    C287     C        0.35147    0.38863    0.60340    1.000
    H204     H        0.32330    0.37370    0.58480    1.000
    C288     C        0.41850    0.56790    0.55660    1.000
    C289     C        0.41690    0.53000    0.59010    1.000
    H205     H        0.43400    0.53310    0.63630    1.000
    C290     C        0.39230    0.49110    0.55820    1.000
    C291     C        0.36670    0.48350    0.48830    1.000
    C292     C        0.36220    0.51960    0.44930    1.000
    H206     H        0.34270    0.51520    0.40260    1.000
    C293     C        0.38810    0.56500    0.48130    1.000
    C294     C        0.43300    0.65260    0.43400    1.000
    H207     H        0.46180    0.66490    0.45160    1.000
    C295     C        0.43220    0.62150    0.47260    1.000
    H208     H        0.46020    0.61410    0.51690    1.000
    C296     C        0.39010    0.60120    0.44610    1.000
    C297     C        0.34870    0.61710    0.38370    1.000
    H209     H        0.31930    0.60700    0.36620    1.000
    C298     C        0.35200    0.64780    0.34840    1.000
    H210     H        0.32390    0.65730    0.30530    1.000
    C299     C        0.39281    0.66551    0.37130    1.000
    C300     C        0.39345    0.69976    0.32820    1.000
    C301     C        0.47080    0.61580    0.67010    1.000
    H211     H        0.49060    0.58860    0.69900    1.000
    H212     H        0.45020    0.62490    0.67690    1.000
    C302     C        0.50110    0.66070    0.67830    1.000
    H213     H        0.49580    0.66300    0.63770    1.000
    H214     H        0.53470    0.65480    0.71680    1.000
    C303     C        0.40675    0.17273    0.81330    1.000
    C304     C        0.40948    0.12939    0.84950    1.000
    C305     C        0.45286    0.10700    0.90300    1.000
    H215     H        0.48060    0.11740    0.91490    1.000
    C306     C        0.45440    0.06912    0.93810    1.000
    H216     H        0.48380    0.05630    0.97580    1.000
    C307     C        0.41460    0.05023    0.91920    1.000
    C308     C        0.37040    0.07200    0.86320    1.000
    H217     H        0.34240    0.05940    0.84840    1.000
    C309     C        0.36864    0.11160    0.83040    1.000
    H218     H        0.33960    0.12640    0.79520    1.000
    C310     C        0.41430    0.01090    0.95270    1.000
    C311     C        0.44810    0.00780    0.02440    1.000
    C312     C        0.38090    0.93550    0.95440    1.000
    C313     C        0.41279    0.93411    0.02380    1.000
    C314     C        0.44700    0.97040    0.06120    1.000
    H219     H        0.46860    0.97070    0.10850    1.000
    C315     C        0.38180    0.97150    0.91690    1.000
    H220     H        0.36140    0.96900    0.86980    1.000
    C316     C        0.36393    0.85708    0.07880    1.000
    H221     H        0.33490    0.85160    0.06570    1.000
    C317     C        0.36710    0.88943    0.04170    1.000
    H222     H        0.33970    0.90470    0.00350    1.000
    C318     C        0.40970    0.89886    0.06090    1.000
    C319     C        0.45001    0.87512    0.11840    1.000
    H223     H        0.47910    0.88110    0.13200    1.000
    C320     C        0.44841    0.84293    0.15610    1.000
    C321     C        0.40421    0.83375    0.13460    1.000
    C322     C        0.40206    0.80081    0.17710    1.000
    C323     C        0.52840    0.02990    0.14220    1.000
    H224     H        0.54550    0.00050    0.15150    1.000
    H225     H        0.52030    0.03150    0.16900    1.000
    C324     C        0.32490    0.89160    0.84000    1.000
    H226     H        0.30130    0.91640    0.81040    1.000
    H227     H        0.34960    0.89440    0.83950    1.000
    C325     C        0.30040    0.83930    0.81180    1.000
    H228     H        0.32030    0.81640    0.84900    1.000
    H229     H        0.27020    0.84060    0.79920    1.000
    C326     C        0.29250    0.82200    0.75840    1.000
    H230     H        0.27790    0.79080    0.74620    1.000
    H231     H        0.32210    0.81930    0.77040    1.000
    H232     H        0.27180    0.84350    0.72040    1.000
    C327     C        0.24840    0.75740    0.06330    1.000
    H233     H        0.26440    0.75570    0.04910    1.000
    C328     C        0.20400    0.75980    0.01750    1.000
    H234     H        0.18970    0.76480    0.97280    1.000
    C329     C        0.17540    0.75540    0.02990    1.000
    C330     C        0.20110    0.75340    0.10000    1.000
    H235     H        0.18530    0.75110    0.11450    1.000
    C331     C        0.25120    0.75490    0.14780    1.000
    H236     H        0.26800    0.75430    0.19400    1.000
    C332     C        0.04936    0.78150    0.87030    1.000
    H237     H        0.03300    0.79800    0.82950    1.000
    C333     C        0.09793    0.78184    0.91740    1.000
    H238     H        0.11390    0.79780    0.90790    1.000
    C334     C        0.12295    0.75881    0.97830    1.000
    C335     C        0.09701    0.73710    0.98940    1.000
    H239     H        0.11250    0.72220    0.03100    1.000
    C336     C        0.04930    0.73720    0.94020    1.000
    H240     H        0.03270    0.72140    0.94870    1.000
    N11      N        0.27498    0.75706    0.13017    1.000
    N12      N        0.02459    0.75852    0.88039    1.000
    O61      O        0.35784    0.30701    0.67041    1.000
    O62      O        0.43600    0.31538    0.75387    1.000
    O63      O        0.44240    0.60700    0.59110    1.000
    O64      O        0.33800    0.44220    0.45210    1.000
    O65      O        0.35518    0.71150    0.27062    1.000
    O66      O        0.43366    0.71246    0.35266    1.000
    O67      O        0.36679    0.18893    0.76414    1.000
    O68      O        0.44561    0.18991    0.83788    1.000
    O69      O        0.48530    0.04010    0.06400    1.000
    O70      O        0.34770    0.89960    0.91670    1.000
    O71      O        0.36161    0.79315    0.15482    1.000
    O72      O        0.43997    0.78353    0.23065    1.000
    Zn11     Zn       0.34766    0.75326    0.20264    1.000
    Zn12     Zn       0.45200    0.74670    0.30658    1.000
    C337     C        0.89557    0.17152    0.19990    1.000
    C338     C        0.89356    0.12705    0.16480    1.000
    C339     C        0.93498    0.10215    0.19450    1.000
    H241     H        0.96370    0.11100    0.23720    1.000
    C340     C        0.93290    0.06383    0.15950    1.000
    H242     H        0.96060    0.04710    0.17930    1.000
    C341     C        0.89120    0.05006    0.09670    1.000
    C342     C        0.85020    0.07410    0.06910    1.000
    H243     H        0.82140    0.06490    0.02660    1.000
    C343     C        0.85147    0.11137    0.10340    1.000
    H244     H        0.82330    0.12630    0.08480    1.000
    C344     C        0.91850    0.93210    0.05660    1.000
    C345     C        0.91690    0.97000    0.09010    1.000
    H245     H        0.93400    0.96690    0.13630    1.000
    C346     C        0.89230    0.00890    0.05820    1.000
    C347     C        0.86670    0.01650    0.98830    1.000
    C348     C        0.86220    0.98040    0.94930    1.000
    H246     H        0.84270    0.98480    0.90260    1.000
    C349     C        0.88810    0.93500    0.98130    1.000
    C350     C        0.93300    0.84740    0.93400    1.000
    H247     H        0.96180    0.83510    0.95160    1.000
    C351     C        0.93220    0.87850    0.97260    1.000
    H248     H        0.96020    0.88590    0.01690    1.000
    C352     C        0.89010    0.89880    0.94610    1.000
    C353     C        0.84870    0.88290    0.88370    1.000
    H249     H        0.81930    0.89300    0.86620    1.000
    C354     C        0.85200    0.85220    0.84840    1.000
    H250     H        0.82390    0.84270    0.80530    1.000
    C355     C        0.89281    0.83449    0.87130    1.000
    C356     C        0.89345    0.80024    0.82820    1.000
    C357     C        0.97080    0.88420    0.17010    1.000
    H251     H        0.99060    0.91140    0.19900    1.000
    H252     H        0.95020    0.87510    0.17690    1.000
    C358     C        0.00110    0.83930    0.17830    1.000
    H253     H        0.99580    0.83700    0.13770    1.000
    H254     H        0.03470    0.84520    0.21680    1.000
    C359     C        0.90675    0.32727    0.31330    1.000
    C360     C        0.90948    0.37061    0.34950    1.000
    C361     C        0.95286    0.39300    0.40300    1.000
    H255     H        0.98060    0.38260    0.41490    1.000
    C362     C        0.95440    0.43088    0.43810    1.000
    H256     H        0.98380    0.44370    0.47580    1.000
    C363     C        0.91460    0.44977    0.41920    1.000
    C364     C        0.87040    0.42800    0.36320    1.000
    H257     H        0.84240    0.44060    0.34840    1.000
    C365     C        0.86864    0.38840    0.33040    1.000
    H258     H        0.83960    0.37360    0.29520    1.000
    C366     C        0.91430    0.48910    0.45270    1.000
    C367     C        0.94810    0.49220    0.52440    1.000
    C368     C        0.88090    0.56450    0.45440    1.000
    C369     C        0.91279    0.56589    0.52380    1.000
    C370     C        0.94700    0.52960    0.56120    1.000
    H259     H        0.96860    0.52930    0.60850    1.000
    C371     C        0.88180    0.52850    0.41690    1.000
    H260     H        0.86140    0.53100    0.36980    1.000
    C372     C        0.86393    0.64292    0.57880    1.000
    H261     H        0.83490    0.64840    0.56570    1.000
    C373     C        0.86710    0.61057    0.54170    1.000
    H262     H        0.83970    0.59530    0.50350    1.000
    C374     C        0.90970    0.60114    0.56090    1.000
    C375     C        0.95001    0.62488    0.61840    1.000
    H263     H        0.97910    0.61890    0.63200    1.000
    C376     C        0.94841    0.65707    0.65610    1.000
    C377     C        0.90421    0.66625    0.63460    1.000
    C378     C        0.90206    0.69919    0.67710    1.000
    C379     C        0.02840    0.47010    0.64220    1.000
    H264     H        0.04550    0.49950    0.65150    1.000
    H265     H        0.02030    0.46850    0.66900    1.000
    C380     C        0.82490    0.60840    0.34000    1.000
    H266     H        0.80130    0.58360    0.31040    1.000
    H267     H        0.84960    0.60560    0.33950    1.000
    C381     C        0.80040    0.66070    0.31180    1.000
    H268     H        0.82030    0.68360    0.34900    1.000
    H269     H        0.77020    0.65940    0.29920    1.000
    C382     C        0.79250    0.67800    0.25840    1.000
    H270     H        0.77790    0.70920    0.24620    1.000
    H271     H        0.82210    0.68070    0.27040    1.000
    H272     H        0.77180    0.65650    0.22040    1.000
    C383     C        0.74840    0.74260    0.56330    1.000
    H273     H        0.76440    0.74430    0.54910    1.000
    C384     C        0.70400    0.74020    0.51750    1.000
    H274     H        0.68970    0.73520    0.47280    1.000
    C385     C        0.67540    0.74460    0.52990    1.000
    C386     C        0.70110    0.74660    0.60000    1.000
    H275     H        0.68530    0.74890    0.61450    1.000
    C387     C        0.75120    0.74510    0.64780    1.000
    H276     H        0.76800    0.74570    0.69400    1.000
    C388     C        0.54936    0.71850    0.37030    1.000
    H277     H        0.53300    0.70200    0.32950    1.000
    C389     C        0.59793    0.71816    0.41740    1.000
    H278     H        0.61390    0.70220    0.40790    1.000
    C390     C        0.62295    0.74119    0.47830    1.000
    C391     C        0.59701    0.76290    0.48940    1.000
    H279     H        0.61250    0.77780    0.53100    1.000
    C392     C        0.54930    0.76280    0.44020    1.000
    H280     H        0.53270    0.77860    0.44870    1.000
    N13      N        0.77498    0.74294    0.63017    1.000
    N14      N        0.52459    0.74148    0.38039    1.000
    O73      O        0.85784    0.19299    0.17041    1.000
    O74      O        0.93600    0.18462    0.25387    1.000
    O75      O        0.94240    0.89300    0.09110    1.000
    O76      O        0.83800    0.05780    0.95210    1.000
    O77      O        0.85518    0.78850    0.77062    1.000
    O78      O        0.93366    0.78754    0.85266    1.000
    O79      O        0.86679    0.31107    0.26414    1.000
    O80      O        0.94561    0.31009    0.33788    1.000
    O81      O        0.98530    0.45990    0.56400    1.000
    O82      O        0.84770    0.60040    0.41670    1.000
    O83      O        0.86161    0.70685    0.65482    1.000
    O84      O        0.93997    0.71647    0.73065    1.000
    Zn13     Zn       0.84766    0.74674    0.70264    1.000
    Zn14     Zn       0.95200    0.75330    0.80658    1.000
    C393     C        0.39557    0.67152    0.19990    1.000
    C394     C        0.39356    0.62705    0.16480    1.000
    C395     C        0.43498    0.60215    0.19450    1.000
    H281     H        0.46370    0.61100    0.23720    1.000
    C396     C        0.43290    0.56383    0.15950    1.000
    H282     H        0.46060    0.54710    0.17930    1.000
    C397     C        0.39120    0.55006    0.09670    1.000
    C398     C        0.35020    0.57410    0.06910    1.000
    H283     H        0.32140    0.56490    0.02660    1.000
    C399     C        0.35147    0.61137    0.10340    1.000
    H284     H        0.32330    0.62630    0.08480    1.000
    C400     C        0.41850    0.43210    0.05660    1.000
    C401     C        0.41690    0.47000    0.09010    1.000
    H285     H        0.43400    0.46690    0.13630    1.000
    C402     C        0.39230    0.50890    0.05820    1.000
    C403     C        0.36670    0.51650    0.98830    1.000
    C404     C        0.36220    0.48040    0.94930    1.000
    H286     H        0.34270    0.48480    0.90260    1.000
    C405     C        0.38810    0.43500    0.98130    1.000
    C406     C        0.43300    0.34740    0.93400    1.000
    H287     H        0.46180    0.33510    0.95160    1.000
    C407     C        0.43220    0.37850    0.97260    1.000
    H288     H        0.46020    0.38590    0.01690    1.000
    C408     C        0.39010    0.39880    0.94610    1.000
    C409     C        0.34870    0.38290    0.88370    1.000
    H289     H        0.31930    0.39300    0.86620    1.000
    C410     C        0.35200    0.35220    0.84840    1.000
    H290     H        0.32390    0.34270    0.80530    1.000
    C411     C        0.39281    0.33449    0.87130    1.000
    C412     C        0.39345    0.30024    0.82820    1.000
    C413     C        0.47080    0.38420    0.17010    1.000
    H291     H        0.49060    0.41140    0.19900    1.000
    H292     H        0.45020    0.37510    0.17690    1.000
    C414     C        0.50110    0.33930    0.17830    1.000
    H293     H        0.49580    0.33700    0.13770    1.000
    H294     H        0.53470    0.34520    0.21680    1.000
    C415     C        0.40675    0.82727    0.31330    1.000
    C416     C        0.40948    0.87061    0.34950    1.000
    C417     C        0.45286    0.89300    0.40300    1.000
    H295     H        0.48060    0.88260    0.41490    1.000
    C418     C        0.45440    0.93088    0.43810    1.000
    H296     H        0.48380    0.94370    0.47580    1.000
    C419     C        0.41460    0.94977    0.41920    1.000
    C420     C        0.37040    0.92800    0.36320    1.000
    H297     H        0.34240    0.94060    0.34840    1.000
    C421     C        0.36864    0.88840    0.33040    1.000
    H298     H        0.33960    0.87360    0.29520    1.000
    C422     C        0.41430    0.98910    0.45270    1.000
    C423     C        0.44810    0.99220    0.52440    1.000
    C424     C        0.38090    0.06450    0.45440    1.000
    C425     C        0.41279    0.06589    0.52380    1.000
    C426     C        0.44700    0.02960    0.56120    1.000
    H299     H        0.46860    0.02930    0.60850    1.000
    C427     C        0.38180    0.02850    0.41690    1.000
    H300     H        0.36140    0.03100    0.36980    1.000
    C428     C        0.36393    0.14292    0.57880    1.000
    H301     H        0.33490    0.14840    0.56570    1.000
    C429     C        0.36710    0.11057    0.54170    1.000
    H302     H        0.33970    0.09530    0.50350    1.000
    C430     C        0.40970    0.10114    0.56090    1.000
    C431     C        0.45001    0.12488    0.61840    1.000
    H303     H        0.47910    0.11890    0.63200    1.000
    C432     C        0.44841    0.15707    0.65610    1.000
    C433     C        0.40421    0.16625    0.63460    1.000
    C434     C        0.40206    0.19919    0.67710    1.000
    C435     C        0.52840    0.97010    0.64220    1.000
    H304     H        0.54550    0.99950    0.65150    1.000
    H305     H        0.52030    0.96850    0.66900    1.000
    C436     C        0.32490    0.10840    0.34000    1.000
    H306     H        0.30130    0.08360    0.31040    1.000
    H307     H        0.34960    0.10560    0.33950    1.000
    C437     C        0.30040    0.16070    0.31180    1.000
    H308     H        0.32030    0.18360    0.34900    1.000
    H309     H        0.27020    0.15940    0.29920    1.000
    C438     C        0.29250    0.17800    0.25840    1.000
    H310     H        0.27790    0.20920    0.24620    1.000
    H311     H        0.32210    0.18070    0.27040    1.000
    H312     H        0.27180    0.15650    0.22040    1.000
    C439     C        0.24840    0.24260    0.56330    1.000
    H313     H        0.26440    0.24430    0.54910    1.000
    C440     C        0.20400    0.24020    0.51750    1.000
    H314     H        0.18970    0.23520    0.47280    1.000
    C441     C        0.17540    0.24460    0.52990    1.000
    C442     C        0.20110    0.24660    0.60000    1.000
    H315     H        0.18530    0.24890    0.61450    1.000
    C443     C        0.25120    0.24510    0.64780    1.000
    H316     H        0.26800    0.24570    0.69400    1.000
    C444     C        0.04936    0.21850    0.37030    1.000
    H317     H        0.03300    0.20200    0.32950    1.000
    C445     C        0.09793    0.21816    0.41740    1.000
    H318     H        0.11390    0.20220    0.40790    1.000
    C446     C        0.12295    0.24119    0.47830    1.000
    C447     C        0.09701    0.26290    0.48940    1.000
    H319     H        0.11250    0.27780    0.53100    1.000
    C448     C        0.04930    0.26280    0.44020    1.000
    H320     H        0.03270    0.27860    0.44870    1.000
    N15      N        0.27498    0.24294    0.63017    1.000
    N16      N        0.02459    0.24148    0.38039    1.000
    O85      O        0.35784    0.69299    0.17041    1.000
    O86      O        0.43600    0.68462    0.25387    1.000
    O87      O        0.44240    0.39300    0.09110    1.000
    O88      O        0.33800    0.55780    0.95210    1.000
    O89      O        0.35518    0.28850    0.77062    1.000
    O90      O        0.43366    0.28754    0.85266    1.000
    O91      O        0.36679    0.81107    0.26414    1.000
    O92      O        0.44561    0.81009    0.33788    1.000
    O93      O        0.48530    0.95990    0.56400    1.000
    O94      O        0.34770    0.10040    0.41670    1.000
    O95      O        0.36161    0.20685    0.65482    1.000
    O96      O        0.43997    0.21647    0.73065    1.000
    Zn15     Zn       0.34766    0.24674    0.70264    1.000
    Zn16     Zn       0.45200    0.25330    0.80658    1.000
