# CIF file generated by openbabel 3.1.0, see https://openbabel.org
data_I
_chemical_name_common 'image0'
_cell_length_a 36.706
_cell_length_b 6.9945
_cell_length_c 6.1881
_cell_angle_alpha 90
_cell_angle_beta 97.42
_cell_angle_gamma 90
_space_group_name_H-M_alt 'P 1'
_space_group_name_Hall 'P 1'
loop_
    _symmetry_equiv_pos_as_xyz
    x,y,z
loop_
    _atom_site_label
    _atom_site_type_symbol
    _atom_site_fract_x
    _atom_site_fract_y
    _atom_site_fract_z
    _atom_site_occupancy
    O1       O        0.34670    0.44310    0.51500    1.000
    O2       O        0.20030    0.19010    0.21200    1.000
    O3       O        0.22436    0.34710    0.62360    1.000
    C1       C        0.44890    0.43090    0.30680    1.000
    H1       H        0.47010    0.38600    0.40310    1.000
    C2       C        0.41470    0.42700    0.37280    1.000
    H2       H        0.41180    0.38620    0.51900    1.000
    C3       C        0.38450    0.48100    0.23140    1.000
    C4       C        0.38880    0.55040    0.02710    1.000
    H3       H        0.36810    0.60370    0.93390    1.000
    C5       C        0.42290    0.54280    0.95810    1.000
    H4       H        0.42540    0.56820    0.80700    1.000
    C6       C        0.17490    0.48500    0.76270    1.000
    C7       C        0.14330    0.55840    0.63850    1.000
    H5       H        0.14490    0.62000    0.50160    1.000
    C8       C        0.10970    0.54050    0.71630    1.000
    H6       H        0.08770    0.58000    0.62740    1.000
    C9       C        0.10790    0.46560    0.92250    1.000
    H7       H        0.08470    0.45630    0.97680    1.000
    C10      C        0.13960    0.40430    0.04970    1.000
    H8       H        0.13830    0.35500    0.19320    1.000
    C11      C        0.17310    0.41420    0.96980    1.000
    C12      C        0.20670    0.35400    0.13100    1.000
    O4       O        0.84670    0.94310    0.51500    1.000
    O5       O        0.70030    0.69010    0.21200    1.000
    O6       O        0.72436    0.84710    0.62360    1.000
    C13      C        0.94890    0.93090    0.30680    1.000
    H9       H        0.97010    0.88600    0.40310    1.000
    C14      C        0.91470    0.92700    0.37280    1.000
    H10      H        0.91180    0.88620    0.51900    1.000
    C15      C        0.88450    0.98100    0.23140    1.000
    C16      C        0.88880    0.05040    0.02710    1.000
    H11      H        0.86810    0.10370    0.93390    1.000
    C17      C        0.92290    0.04280    0.95810    1.000
    H12      H        0.92540    0.06820    0.80700    1.000
    C18      C        0.67490    0.98500    0.76270    1.000
    C19      C        0.64330    0.05840    0.63850    1.000
    H13      H        0.64490    0.12000    0.50160    1.000
    C20      C        0.60970    0.04050    0.71630    1.000
    H14      H        0.58770    0.08000    0.62740    1.000
    C21      C        0.60790    0.96560    0.92250    1.000
    H15      H        0.58470    0.95630    0.97680    1.000
    C22      C        0.63960    0.90430    0.04970    1.000
    H16      H        0.63830    0.85500    0.19320    1.000
    C23      C        0.67310    0.91420    0.96980    1.000
    C24      C        0.70670    0.85400    0.13100    1.000
    O7       O        0.65330    0.44310    0.48500    1.000
    O8       O        0.79970    0.19010    0.78800    1.000
    O9       O        0.77564    0.34710    0.37640    1.000
    C25      C        0.55110    0.43090    0.69320    1.000
    H17      H        0.52990    0.38600    0.59690    1.000
    C26      C        0.58530    0.42700    0.62720    1.000
    H18      H        0.58820    0.38620    0.48100    1.000
    C27      C        0.61550    0.48100    0.76860    1.000
    C28      C        0.61120    0.55040    0.97290    1.000
    H19      H        0.63190    0.60370    0.06610    1.000
    C29      C        0.57710    0.54280    0.04190    1.000
    H20      H        0.57460    0.56820    0.19300    1.000
    C30      C        0.82510    0.48500    0.23730    1.000
    C31      C        0.85670    0.55840    0.36150    1.000
    H21      H        0.85510    0.62000    0.49840    1.000
    C32      C        0.89030    0.54050    0.28370    1.000
    H22      H        0.91230    0.58000    0.37260    1.000
    C33      C        0.89210    0.46560    0.07750    1.000
    H23      H        0.91530    0.45630    0.02320    1.000
    C34      C        0.86040    0.40430    0.95030    1.000
    H24      H        0.86170    0.35500    0.80680    1.000
    C35      C        0.82690    0.41420    0.03020    1.000
    C36      C        0.79330    0.35400    0.86900    1.000
    O10      O        0.15330    0.94310    0.48500    1.000
    O11      O        0.29970    0.69010    0.78800    1.000
    O12      O        0.27564    0.84710    0.37640    1.000
    C37      C        0.05110    0.93090    0.69320    1.000
    H25      H        0.02990    0.88600    0.59690    1.000
    C38      C        0.08530    0.92700    0.62720    1.000
    H26      H        0.08820    0.88620    0.48100    1.000
    C39      C        0.11550    0.98100    0.76860    1.000
    C40      C        0.11120    0.05040    0.97290    1.000
    H27      H        0.13190    0.10370    0.06610    1.000
    C41      C        0.07710    0.04280    0.04190    1.000
    H28      H        0.07460    0.06820    0.19300    1.000
    C42      C        0.32510    0.98500    0.23730    1.000
    C43      C        0.35670    0.05840    0.36150    1.000
    H29      H        0.35510    0.12000    0.49840    1.000
    C44      C        0.39030    0.04050    0.28370    1.000
    H30      H        0.41230    0.08000    0.37260    1.000
    C45      C        0.39210    0.96560    0.07750    1.000
    H31      H        0.41530    0.95630    0.02320    1.000
    C46      C        0.36040    0.90430    0.95030    1.000
    H32      H        0.36170    0.85500    0.80680    1.000
    C47      C        0.32690    0.91420    0.03020    1.000
    C48      C        0.29330    0.85400    0.86900    1.000
    O13      O        0.65330    0.55690    0.48500    1.000
    O14      O        0.79970    0.80990    0.78800    1.000
    O15      O        0.77564    0.65290    0.37640    1.000
    C49      C        0.55110    0.56910    0.69320    1.000
    H33      H        0.52990    0.61400    0.59690    1.000
    C50      C        0.58530    0.57300    0.62720    1.000
    H34      H        0.58820    0.61380    0.48100    1.000
    C51      C        0.61550    0.51900    0.76860    1.000
    C52      C        0.61120    0.44960    0.97290    1.000
    H35      H        0.63190    0.39630    0.06610    1.000
    C53      C        0.57710    0.45720    0.04190    1.000
    H36      H        0.57460    0.43180    0.19300    1.000
    C54      C        0.82510    0.51500    0.23730    1.000
    C55      C        0.85670    0.44160    0.36150    1.000
    H37      H        0.85510    0.38000    0.49840    1.000
    C56      C        0.89030    0.45950    0.28370    1.000
    H38      H        0.91230    0.42000    0.37260    1.000
    C57      C        0.89210    0.53440    0.07750    1.000
    H39      H        0.91530    0.54370    0.02320    1.000
    C58      C        0.86040    0.59570    0.95030    1.000
    H40      H        0.86170    0.64500    0.80680    1.000
    C59      C        0.82690    0.58580    0.03020    1.000
    C60      C        0.79330    0.64600    0.86900    1.000
    O16      O        0.15330    0.05690    0.48500    1.000
    O17      O        0.29970    0.30990    0.78800    1.000
    O18      O        0.27564    0.15290    0.37640    1.000
    C61      C        0.05110    0.06910    0.69320    1.000
    H41      H        0.02990    0.11400    0.59690    1.000
    C62      C        0.08530    0.07300    0.62720    1.000
    H42      H        0.08820    0.11380    0.48100    1.000
    C63      C        0.11550    0.01900    0.76860    1.000
    C64      C        0.11120    0.94960    0.97290    1.000
    H43      H        0.13190    0.89630    0.06610    1.000
    C65      C        0.07710    0.95720    0.04190    1.000
    H44      H        0.07460    0.93180    0.19300    1.000
    C66      C        0.32510    0.01500    0.23730    1.000
    C67      C        0.35670    0.94160    0.36150    1.000
    H45      H        0.35510    0.88000    0.49840    1.000
    C68      C        0.39030    0.95950    0.28370    1.000
    H46      H        0.41230    0.92000    0.37260    1.000
    C69      C        0.39210    0.03440    0.07750    1.000
    H47      H        0.41530    0.04370    0.02320    1.000
    C70      C        0.36040    0.09570    0.95030    1.000
    H48      H        0.36170    0.14500    0.80680    1.000
    C71      C        0.32690    0.08580    0.03020    1.000
    C72      C        0.29330    0.14600    0.86900    1.000
    O19      O        0.34670    0.55690    0.51500    1.000
    O20      O        0.20030    0.80990    0.21200    1.000
    O21      O        0.22436    0.65290    0.62360    1.000
    C73      C        0.44890    0.56910    0.30680    1.000
    H49      H        0.47010    0.61400    0.40310    1.000
    C74      C        0.41470    0.57300    0.37280    1.000
    H50      H        0.41180    0.61380    0.51900    1.000
    C75      C        0.38450    0.51900    0.23140    1.000
    C76      C        0.38880    0.44960    0.02710    1.000
    H51      H        0.36810    0.39630    0.93390    1.000
    C77      C        0.42290    0.45720    0.95810    1.000
    H52      H        0.42540    0.43180    0.80700    1.000
    C78      C        0.17490    0.51500    0.76270    1.000
    C79      C        0.14330    0.44160    0.63850    1.000
    H53      H        0.14490    0.38000    0.50160    1.000
    C80      C        0.10970    0.45950    0.71630    1.000
    H54      H        0.08770    0.42000    0.62740    1.000
    C81      C        0.10790    0.53440    0.92250    1.000
    H55      H        0.08470    0.54370    0.97680    1.000
    C82      C        0.13960    0.59570    0.04970    1.000
    H56      H        0.13830    0.64500    0.19320    1.000
    C83      C        0.17310    0.58580    0.96980    1.000
    C84      C        0.20670    0.64600    0.13100    1.000
    O22      O        0.84670    0.05690    0.51500    1.000
    O23      O        0.70030    0.30990    0.21200    1.000
    O24      O        0.72436    0.15290    0.62360    1.000
    C85      C        0.94890    0.06910    0.30680    1.000
    H57      H        0.97010    0.11400    0.40310    1.000
    C86      C        0.91470    0.07300    0.37280    1.000
    H58      H        0.91180    0.11380    0.51900    1.000
    C87      C        0.88450    0.01900    0.23140    1.000
    C88      C        0.88880    0.94960    0.02710    1.000
    H59      H        0.86810    0.89630    0.93390    1.000
    C89      C        0.92290    0.95720    0.95810    1.000
    H60      H        0.92540    0.93180    0.80700    1.000
    C90      C        0.67490    0.01500    0.76270    1.000
    C91      C        0.64330    0.94160    0.63850    1.000
    H61      H        0.64490    0.88000    0.50160    1.000
    C92      C        0.60970    0.95950    0.71630    1.000
    H62      H        0.58770    0.92000    0.62740    1.000
    C93      C        0.60790    0.03440    0.92250    1.000
    H63      H        0.58470    0.04370    0.97680    1.000
    C94      C        0.63960    0.09570    0.04970    1.000
    H64      H        0.63830    0.14500    0.19320    1.000
    C95      C        0.67310    0.08580    0.96980    1.000
    C96      C        0.70670    0.14600    0.13100    1.000
    Tb1      Tb       0.28010    0.50000    0.47873    1.000
    O25      O        0.31930    0.50000    0.19370    1.000
    O26      O        0.23290    0.50000    0.16270    1.000
    N1       N        0.45310    0.50000    0.09960    1.000
    C97      C        0.34860    0.50000    0.31900    1.000
    C98      C        0.20970    0.50000    0.66700    1.000
    Tb2      Tb       0.78010    0.00000    0.47873    1.000
    O27      O        0.81930    0.00000    0.19370    1.000
    O28      O        0.73290    0.00000    0.16270    1.000
    N2       N        0.95310    0.00000    0.09960    1.000
    C99      C        0.84860    0.00000    0.31900    1.000
    C100     C        0.70970    0.00000    0.66700    1.000
    Tb3      Tb       0.71990    0.50000    0.52127    1.000
    O29      O        0.68070    0.50000    0.80630    1.000
    O30      O        0.76710    0.50000    0.83730    1.000
    N3       N        0.54690    0.50000    0.90040    1.000
    C101     C        0.65140    0.50000    0.68100    1.000
    C102     C        0.79030    0.50000    0.33300    1.000
    Tb4      Tb       0.21990    0.00000    0.52127    1.000
    O31      O        0.18070    0.00000    0.80630    1.000
    O32      O        0.26710    0.00000    0.83730    1.000
    N4       N        0.04690    0.00000    0.90040    1.000
    C103     C        0.15140    0.00000    0.68100    1.000
    C104     C        0.29030    0.00000    0.33300    1.000
    Cu1      Cu       0.50000    0.50000    0.00000    1.000
    Cu2      Cu       0.00000    0.00000    0.00000    1.000
