# CIF file generated by openbabel 3.1.0, see https://openbabel.org
data_I
_chemical_name_common 'image0'
_cell_length_a 15.114
_cell_length_b 8.782
_cell_length_c 15.345
_cell_angle_alpha 90
_cell_angle_beta 95.378
_cell_angle_gamma 90
_space_group_name_H-M_alt 'P 1'
_space_group_name_Hall 'P 1'
loop_
    _symmetry_equiv_pos_as_xyz
    x,y,z
loop_
    _atom_site_label
    _atom_site_type_symbol
    _atom_site_fract_x
    _atom_site_fract_y
    _atom_site_fract_z
    _atom_site_occupancy
    Li1      Li       0.86658    0.25630    0.36166    1.000
    N1       N        0.72918    0.58506    0.16785    1.000
    N2       N        0.83455    0.64274    0.97457    1.000
    N3       N        0.00457    0.33595    0.14359    1.000
    N4       N        0.81513    0.41815    0.25384    1.000
    C1       C        0.80183    0.54635    0.12634    1.000
    C2       C        0.85430    0.44599    0.17881    1.000
    C3       C        0.93714    0.38311    0.15975    1.000
    C4       C        0.74178    0.50451    0.24224    1.000
    C5       C        0.81873    0.60131    0.04229    1.000
    C6       C        0.67603    0.51474    0.30908    1.000
    F1       F        0.59947    0.57505    0.27393    1.000
    F2       F        0.70463    0.60294    0.37747    1.000
    F3       F        0.65768    0.37895    0.34179    1.000
    Li2      Li       0.36658    0.75630    0.36166    1.000
    N5       N        0.22918    0.08506    0.16785    1.000
    N6       N        0.33455    0.14274    0.97457    1.000
    N7       N        0.50457    0.83595    0.14359    1.000
    N8       N        0.31513    0.91815    0.25384    1.000
    C7       C        0.30183    0.04635    0.12634    1.000
    C8       C        0.35430    0.94599    0.17881    1.000
    C9       C        0.43714    0.88311    0.15975    1.000
    C10      C        0.24178    0.00451    0.24224    1.000
    C11      C        0.31873    0.10131    0.04229    1.000
    C12      C        0.17603    0.01474    0.30908    1.000
    F4       F        0.09947    0.07505    0.27393    1.000
    F5       F        0.20463    0.10294    0.37747    1.000
    F6       F        0.15768    0.87895    0.34179    1.000
    Li3      Li       0.13342    0.25630    0.13834    1.000
    N9       N        0.27082    0.58506    0.33215    1.000
    N10      N        0.16545    0.64274    0.52543    1.000
    N11      N        0.99543    0.33595    0.35641    1.000
    N12      N        0.18487    0.41815    0.24616    1.000
    C13      C        0.19817    0.54635    0.37366    1.000
    C14      C        0.14570    0.44599    0.32119    1.000
    C15      C        0.06286    0.38311    0.34025    1.000
    C16      C        0.25822    0.50451    0.25776    1.000
    C17      C        0.18127    0.60131    0.45771    1.000
    C18      C        0.32397    0.51474    0.19092    1.000
    F7       F        0.40053    0.57505    0.22607    1.000
    F8       F        0.29537    0.60294    0.12253    1.000
    F9       F        0.34232    0.37895    0.15821    1.000
    Li4      Li       0.63342    0.75630    0.13834    1.000
    N13      N        0.77082    0.08506    0.33215    1.000
    N14      N        0.66545    0.14274    0.52543    1.000
    N15      N        0.49543    0.83595    0.35641    1.000
    N16      N        0.68487    0.91815    0.24616    1.000
    C19      C        0.69817    0.04635    0.37366    1.000
    C20      C        0.64570    0.94599    0.32119    1.000
    C21      C        0.56286    0.88311    0.34025    1.000
    C22      C        0.75822    0.00451    0.25776    1.000
    C23      C        0.68127    0.10131    0.45771    1.000
    C24      C        0.82397    0.01474    0.19092    1.000
    F10      F        0.90053    0.07505    0.22607    1.000
    F11      F        0.79537    0.10294    0.12253    1.000
    F12      F        0.84232    0.87895    0.15821    1.000
    Li5      Li       0.13342    0.74370    0.63834    1.000
    N17      N        0.27082    0.41494    0.83215    1.000
    N18      N        0.16545    0.35726    0.02543    1.000
    N19      N        0.99543    0.66405    0.85641    1.000
    N20      N        0.18487    0.58185    0.74616    1.000
    C25      C        0.19817    0.45365    0.87366    1.000
    C26      C        0.14570    0.55401    0.82119    1.000
    C27      C        0.06286    0.61689    0.84025    1.000
    C28      C        0.25822    0.49549    0.75776    1.000
    C29      C        0.18127    0.39869    0.95771    1.000
    C30      C        0.32397    0.48526    0.69092    1.000
    F13      F        0.40053    0.42495    0.72607    1.000
    F14      F        0.29537    0.39706    0.62253    1.000
    F15      F        0.34232    0.62105    0.65821    1.000
    Li6      Li       0.63342    0.24370    0.63834    1.000
    N21      N        0.77082    0.91494    0.83215    1.000
    N22      N        0.66545    0.85726    0.02543    1.000
    N23      N        0.49543    0.16405    0.85641    1.000
    N24      N        0.68487    0.08185    0.74616    1.000
    C31      C        0.69817    0.95365    0.87366    1.000
    C32      C        0.64570    0.05401    0.82119    1.000
    C33      C        0.56286    0.11689    0.84025    1.000
    C34      C        0.75822    0.99549    0.75776    1.000
    C35      C        0.68127    0.89869    0.95771    1.000
    C36      C        0.82397    0.98526    0.69092    1.000
    F16      F        0.90053    0.92495    0.72607    1.000
    F17      F        0.79537    0.89706    0.62253    1.000
    F18      F        0.84232    0.12105    0.65821    1.000
    Li7      Li       0.86658    0.74370    0.86166    1.000
    N25      N        0.72918    0.41494    0.66785    1.000
    N26      N        0.83455    0.35726    0.47457    1.000
    N27      N        0.00457    0.66405    0.64359    1.000
    N28      N        0.81513    0.58185    0.75384    1.000
    C37      C        0.80183    0.45365    0.62634    1.000
    C38      C        0.85430    0.55401    0.67881    1.000
    C39      C        0.93714    0.61689    0.65975    1.000
    C40      C        0.74178    0.49549    0.74224    1.000
    C41      C        0.81873    0.39869    0.54229    1.000
    C42      C        0.67603    0.48526    0.80908    1.000
    F19      F        0.59947    0.42495    0.77393    1.000
    F20      F        0.70463    0.39706    0.87747    1.000
    F21      F        0.65768    0.62105    0.84179    1.000
    Li8      Li       0.36658    0.24370    0.86166    1.000
    N29      N        0.22918    0.91494    0.66785    1.000
    N30      N        0.33455    0.85726    0.47457    1.000
    N31      N        0.50457    0.16405    0.64359    1.000
    N32      N        0.31513    0.08185    0.75384    1.000
    C43      C        0.30183    0.95365    0.62634    1.000
    C44      C        0.35430    0.05401    0.67881    1.000
    C45      C        0.43714    0.11689    0.65975    1.000
    C46      C        0.24178    0.99549    0.74224    1.000
    C47      C        0.31873    0.89869    0.54229    1.000
    C48      C        0.17603    0.98526    0.80908    1.000
    F22      F        0.09947    0.92495    0.77393    1.000
    F23      F        0.20463    0.89706    0.87747    1.000
    F24      F        0.15768    0.12105    0.84179    1.000
