# CIF file generated by openbabel 3.1.0, see https://openbabel.org
data_I
_chemical_name_common 'GIKQIC_clean'
_cell_length_a 5.703
_cell_length_b 10.623
_cell_length_c 29.89
_cell_angle_alpha 90
_cell_angle_beta 90
_cell_angle_gamma 90
_space_group_name_H-M_alt 'P 1'
_space_group_name_Hall 'P 1'
loop_
    _symmetry_equiv_pos_as_xyz
    x,y,z
loop_
    _atom_site_label
    _atom_site_type_symbol
    _atom_site_fract_x
    _atom_site_fract_y
    _atom_site_fract_z
    _atom_site_occupancy
    Cd1      Cd       0.82480    0.00706    0.76085    1.000
    Cd2      Cd       0.67520    0.99294    0.26085    1.000
    Cd3      Cd       0.17520    0.50706    0.73915    1.000
    Cd4      Cd       0.32480    0.49294    0.23915    1.000
    H1       H        0.45180    0.13160    0.82750    1.000
    H2       H        0.36540    0.15680    0.90170    1.000
    H3       H        0.98570    0.00300    0.93240    1.000
    H4       H        0.05560    0.98080    0.85700    1.000
    H5       H        0.93740    0.99900    0.09460    1.000
    H6       H        0.95750    0.97310    0.17070    1.000
    H7       H        0.30730    0.16050    0.11210    1.000
    H8       H        0.34720    0.13110    0.18720    1.000
    H9       H        0.95050    0.96440    0.98610    1.000
    H10      H        0.03090    0.04910    0.02110    1.000
    H11      H        0.04820    0.86840    0.32750    1.000
    H12      H        0.13460    0.84320    0.40170    1.000
    H13      H        0.51430    0.99700    0.43240    1.000
    H14      H        0.44440    0.01920    0.35700    1.000
    H15      H        0.56260    0.00100    0.59460    1.000
    H16      H        0.54250    0.02690    0.67070    1.000
    H17      H        0.19270    0.83950    0.61210    1.000
    H18      H        0.15280    0.86890    0.68720    1.000
    H19      H        0.54950    0.03560    0.48610    1.000
    H20      H        0.46910    0.95090    0.52110    1.000
    H21      H        0.54820    0.63160    0.67250    1.000
    H22      H        0.63460    0.65680    0.59830    1.000
    H23      H        0.01430    0.50300    0.56760    1.000
    H24      H        0.94440    0.48080    0.64300    1.000
    H25      H        0.06260    0.49900    0.40540    1.000
    H26      H        0.04250    0.47310    0.32930    1.000
    H27      H        0.69270    0.66050    0.38790    1.000
    H28      H        0.65280    0.63110    0.31280    1.000
    H29      H        0.04950    0.46440    0.51390    1.000
    H30      H        0.96910    0.54910    0.47890    1.000
    H31      H        0.95180    0.36840    0.17250    1.000
    H32      H        0.86540    0.34320    0.09830    1.000
    H33      H        0.48570    0.49700    0.06760    1.000
    H34      H        0.55560    0.51920    0.14300    1.000
    H35      H        0.43740    0.50100    0.90540    1.000
    H36      H        0.45750    0.52690    0.82930    1.000
    H37      H        0.80730    0.33950    0.88790    1.000
    H38      H        0.84720    0.36890    0.81280    1.000
    H39      H        0.45050    0.53560    0.01390    1.000
    H40      H        0.53090    0.45090    0.97890    1.000
    C1       C        0.55930    0.10430    0.84876    1.000
    C2       C        0.50620    0.11940    0.89339    1.000
    C3       C        0.66170    0.07920    0.92593    1.000
    C4       C        0.87330    0.02830    0.91177    1.000
    C5       C        0.91420    0.01580    0.86619    1.000
    C6       C        0.59330    0.09520    0.97310    1.000
    C7       C        0.57340    0.09640    0.04562    1.000
    C8       C        0.61370    0.07950    0.09382    1.000
    C9       C        0.81370    0.02490    0.11265    1.000
    C10      C        0.82420    0.01010    0.15851    1.000
    C11      C        0.44050    0.12070    0.12315    1.000
    C12      C        0.46550    0.10280    0.16832    1.000
    C13      C        0.94070    0.89570    0.34876    1.000
    C14      C        0.99380    0.88060    0.39339    1.000
    C15      C        0.83830    0.92080    0.42593    1.000
    C16      C        0.62670    0.97170    0.41177    1.000
    C17      C        0.58580    0.98420    0.36619    1.000
    C18      C        0.90670    0.90480    0.47310    1.000
    C19      C        0.92660    0.90360    0.54562    1.000
    C20      C        0.88630    0.92050    0.59382    1.000
    C21      C        0.68630    0.97510    0.61265    1.000
    C22      C        0.67580    0.98990    0.65851    1.000
    C23      C        0.05950    0.87930    0.62315    1.000
    C24      C        0.03450    0.89720    0.66832    1.000
    C25      C        0.44070    0.60430    0.65124    1.000
    C26      C        0.49380    0.61940    0.60661    1.000
    C27      C        0.33830    0.57920    0.57407    1.000
    C28      C        0.12670    0.52830    0.58823    1.000
    C29      C        0.08580    0.51580    0.63381    1.000
    C30      C        0.40670    0.59520    0.52690    1.000
    C31      C        0.42660    0.59640    0.45438    1.000
    C32      C        0.38630    0.57950    0.40618    1.000
    C33      C        0.18630    0.52490    0.38735    1.000
    C34      C        0.17580    0.51010    0.34149    1.000
    C35      C        0.55950    0.62070    0.37685    1.000
    C36      C        0.53450    0.60280    0.33168    1.000
    C37      C        0.05930    0.39570    0.15124    1.000
    C38      C        0.00620    0.38060    0.10661    1.000
    C39      C        0.16170    0.42080    0.07407    1.000
    C40      C        0.37330    0.47170    0.08823    1.000
    C41      C        0.41420    0.48420    0.13381    1.000
    C42      C        0.09330    0.40480    0.02690    1.000
    C43      C        0.07340    0.40360    0.95438    1.000
    C44      C        0.11370    0.42050    0.90618    1.000
    C45      C        0.31370    0.47510    0.88735    1.000
    C46      C        0.32420    0.48990    0.84149    1.000
    C47      C        0.94050    0.37930    0.87685    1.000
    C48      C        0.96550    0.39720    0.83168    1.000
    S1       S        0.32707    0.81340    0.78174    1.000
    S2       S        0.17293    0.18660    0.28174    1.000
    S3       S        0.67293    0.31340    0.71826    1.000
    S4       S        0.82707    0.68660    0.21826    1.000
    N1       N        0.76040    0.05150    0.83481    1.000
    N2       N        0.65300    0.04630    0.18647    1.000
    N3       N        0.91730    0.99650    0.01285    1.000
    N4       N        0.39680    0.15060    0.98418    1.000
    N5       N        0.38890    0.15410    0.03105    1.000
    N6       N        0.70790    0.06070    0.01074    1.000
    N7       N        0.73960    0.94850    0.33481    1.000
    N8       N        0.84700    0.95370    0.68647    1.000
    N9       N        0.58270    0.00350    0.51285    1.000
    N10      N        0.10320    0.84940    0.48418    1.000
    N11      N        0.11110    0.84590    0.53105    1.000
    N12      N        0.79210    0.93930    0.51074    1.000
    N13      N        0.23960    0.55150    0.66519    1.000
    N14      N        0.34700    0.54630    0.31353    1.000
    N15      N        0.08270    0.49650    0.48715    1.000
    N16      N        0.60320    0.65060    0.51582    1.000
    N17      N        0.61110    0.65410    0.46895    1.000
    N18      N        0.29210    0.56070    0.48926    1.000
    N19      N        0.26040    0.44850    0.16519    1.000
    N20      N        0.15300    0.45370    0.81353    1.000
    N21      N        0.41730    0.50350    0.98715    1.000
    N22      N        0.89680    0.34940    0.01582    1.000
    N23      N        0.88890    0.34590    0.96895    1.000
    N24      N        0.20790    0.43930    0.98926    1.000
    O1       O        0.06950    0.83860    0.77820    1.000
    O2       O        0.45380    0.91540    0.75844    1.000
    O3       O        0.37510    0.69220    0.75892    1.000
    O4       O        0.39190    0.80700    0.82878    1.000
    O5       O        0.43050    0.16140    0.27820    1.000
    O6       O        0.04620    0.08460    0.25844    1.000
    O7       O        0.12490    0.30780    0.25892    1.000
    O8       O        0.10810    0.19300    0.32878    1.000
    O9       O        0.93050    0.33860    0.72180    1.000
    O10      O        0.54620    0.41540    0.74156    1.000
    O11      O        0.62490    0.19220    0.74108    1.000
    O12      O        0.60810    0.30700    0.67122    1.000
    O13      O        0.56950    0.66140    0.22180    1.000
    O14      O        0.95380    0.58460    0.24156    1.000
    O15      O        0.87510    0.80780    0.24108    1.000
    O16      O        0.89190    0.69300    0.17122    1.000
