# CIF file generated by openbabel 3.1.0, see https://openbabel.org
data_I
_chemical_name_common 'image0'
_cell_length_a 11.258
_cell_length_b 12.602
_cell_length_c 14.689
_cell_angle_alpha 90
_cell_angle_beta 90
_cell_angle_gamma 90
_space_group_name_H-M_alt 'P 1'
_space_group_name_Hall 'P 1'
loop_
    _symmetry_equiv_pos_as_xyz
    x,y,z
loop_
    _atom_site_label
    _atom_site_type_symbol
    _atom_site_fract_x
    _atom_site_fract_y
    _atom_site_fract_z
    _atom_site_occupancy
    C1       C        0.03250    0.01310    0.16750    1.000
    C2       C        0.30320    0.88400    0.07640    1.000
    C3       C        0.38550    0.95060    0.13620    1.000
    C4       C        0.42950    0.05460    0.09660    1.000
    Nd1      Nd       0.14917    0.11343    0.00741    1.000
    O1       O        0.10380    0.08500    0.17500    1.000
    O2       O        0.98330    0.99120    0.09110    1.000
    O3       O        0.21990    0.93030    0.03070    1.000
    O4       O        0.31470    0.78450    0.07520    1.000
    O5       O        0.35450    0.11620    0.06040    1.000
    O6       O        0.53430    0.07110    0.09520    1.000
    C5       C        0.46750    0.48690    0.66750    1.000
    C6       C        0.19680    0.61600    0.57640    1.000
    C7       C        0.11450    0.54940    0.63620    1.000
    C8       C        0.07050    0.44540    0.59660    1.000
    Nd2      Nd       0.35083    0.38657    0.50741    1.000
    O7       O        0.39620    0.41500    0.67500    1.000
    O8       O        0.51670    0.50880    0.59110    1.000
    O9       O        0.28010    0.56970    0.53070    1.000
    O10      O        0.18530    0.71550    0.57520    1.000
    O11      O        0.14550    0.38380    0.56040    1.000
    O12      O        0.96570    0.42890    0.59520    1.000
    C9       C        0.96750    0.01310    0.33250    1.000
    C10      C        0.69680    0.88400    0.42360    1.000
    C11      C        0.61450    0.95060    0.36380    1.000
    C12      C        0.57050    0.05460    0.40340    1.000
    Nd3      Nd       0.85083    0.11343    0.49259    1.000
    O13      O        0.89620    0.08500    0.32500    1.000
    O14      O        0.01670    0.99120    0.40890    1.000
    O15      O        0.78010    0.93030    0.46930    1.000
    O16      O        0.68530    0.78450    0.42480    1.000
    O17      O        0.64550    0.11620    0.43960    1.000
    O18      O        0.46570    0.07110    0.40480    1.000
    C13      C        0.53250    0.48690    0.83250    1.000
    C14      C        0.80320    0.61600    0.92360    1.000
    C15      C        0.88550    0.54940    0.86380    1.000
    C16      C        0.92950    0.44540    0.90340    1.000
    Nd4      Nd       0.64917    0.38657    0.99259    1.000
    O19      O        0.60380    0.41500    0.82500    1.000
    O20      O        0.48330    0.50880    0.90890    1.000
    O21      O        0.71990    0.56970    0.96930    1.000
    O22      O        0.81470    0.71550    0.92480    1.000
    O23      O        0.85450    0.38380    0.93960    1.000
    O24      O        0.03430    0.42890    0.90480    1.000
    C17      C        0.96750    0.98690    0.83250    1.000
    C18      C        0.69680    0.11600    0.92360    1.000
    C19      C        0.61450    0.04940    0.86380    1.000
    C20      C        0.57050    0.94540    0.90340    1.000
    Nd5      Nd       0.85083    0.88657    0.99259    1.000
    O25      O        0.89620    0.91500    0.82500    1.000
    O26      O        0.01670    0.00880    0.90890    1.000
    O27      O        0.78010    0.06970    0.96930    1.000
    O28      O        0.68530    0.21550    0.92480    1.000
    O29      O        0.64550    0.88380    0.93960    1.000
    O30      O        0.46570    0.92890    0.90480    1.000
    C21      C        0.53250    0.51310    0.33250    1.000
    C22      C        0.80320    0.38400    0.42360    1.000
    C23      C        0.88550    0.45060    0.36380    1.000
    C24      C        0.92950    0.55460    0.40340    1.000
    Nd6      Nd       0.64917    0.61343    0.49259    1.000
    O31      O        0.60380    0.58500    0.32500    1.000
    O32      O        0.48330    0.49120    0.40890    1.000
    O33      O        0.71990    0.43030    0.46930    1.000
    O34      O        0.81470    0.28450    0.42480    1.000
    O35      O        0.85450    0.61620    0.43960    1.000
    O36      O        0.03430    0.57110    0.40480    1.000
    C25      C        0.03250    0.98690    0.66750    1.000
    C26      C        0.30320    0.11600    0.57640    1.000
    C27      C        0.38550    0.04940    0.63620    1.000
    C28      C        0.42950    0.94540    0.59660    1.000
    Nd7      Nd       0.14917    0.88657    0.50741    1.000
    O37      O        0.10380    0.91500    0.67500    1.000
    O38      O        0.98330    0.00880    0.59110    1.000
    O39      O        0.21990    0.06970    0.53070    1.000
    O40      O        0.31470    0.21550    0.57520    1.000
    O41      O        0.35450    0.88380    0.56040    1.000
    O42      O        0.53430    0.92890    0.59520    1.000
    C29      C        0.46750    0.51310    0.16750    1.000
    C30      C        0.19680    0.38400    0.07640    1.000
    C31      C        0.11450    0.45060    0.13620    1.000
    C32      C        0.07050    0.55460    0.09660    1.000
    Nd8      Nd       0.35083    0.61343    0.00741    1.000
    O43      O        0.39620    0.58500    0.17500    1.000
    O44      O        0.51670    0.49120    0.09110    1.000
    O45      O        0.28010    0.43030    0.03070    1.000
    O46      O        0.18530    0.28450    0.07520    1.000
    O47      O        0.14550    0.61620    0.06040    1.000
    O48      O        0.96570    0.57110    0.09520    1.000
    C33      C        0.00000    0.94730    0.25000    1.000
    C34      C        0.50000    0.55270    0.75000    1.000
    C35      C        0.00000    0.05270    0.75000    1.000
    C36      C        0.50000    0.44730    0.25000    1.000
