# CIF file generated by openbabel 3.1.0, see https://openbabel.org
data_I
_chemical_name_common 'image0'
_cell_length_a 6.6863
_cell_length_b 33.34
_cell_length_c 11.325
_cell_angle_alpha 90
_cell_angle_beta 107.156
_cell_angle_gamma 90
_space_group_name_H-M_alt 'P 1'
_space_group_name_Hall 'P 1'
loop_
    _symmetry_equiv_pos_as_xyz
    x,y,z
loop_
    _atom_site_label
    _atom_site_type_symbol
    _atom_site_fract_x
    _atom_site_fract_y
    _atom_site_fract_z
    _atom_site_occupancy
    O1       O        0.45160    0.95189    0.58470    1.000
    O2       O        0.10560    0.94686    0.55580    1.000
    O3       O        0.09170    0.53476    0.88730    1.000
    O4       O        0.78130    0.56532    0.81010    1.000
    N1       N        0.43380    0.77085    0.73740    1.000
    N2       N        0.38520    0.70943    0.78180    1.000
    C1       C        0.29630    0.74066    0.71400    1.000
    H1       H        0.15850    0.74140    0.65850    1.000
    C2       C        0.61570    0.75834    0.82160    1.000
    H2       H        0.73870    0.77390    0.85350    1.000
    C3       C        0.58890    0.72012    0.85100    1.000
    H3       H        0.68830    0.70360    0.90740    1.000
    C4       C        0.39160    0.81093    0.69100    1.000
    C5       C        0.54040    0.83130    0.65390    1.000
    H4       H        0.66680    0.81850    0.65310    1.000
    C6       C        0.50370    0.87078    0.61770    1.000
    H5       H        0.60600    0.88520    0.59200    1.000
    C7       C        0.31950    0.88958    0.61830    1.000
    C8       C        0.16770    0.86841    0.65150    1.000
    H6       H        0.03880    0.88100    0.64860    1.000
    C9       C        0.20240    0.82882    0.68930    1.000
    H7       H        0.09920    0.81420    0.71360    1.000
    C10      C        0.28830    0.93325    0.58230    1.000
    C11      C        0.28860    0.67201    0.79140    1.000
    C12      C        0.39900    0.63732    0.81870    1.000
    H8       H        0.54530    0.63740    0.82910    1.000
    C13      C        0.30060    0.60196    0.83140    1.000
    H9       H        0.38020    0.57810    0.85360    1.000
    C14      C        0.08560    0.60111    0.81180    1.000
    C15      C        0.97070    0.63649    0.77610    1.000
    H10      H        0.82250    0.63600    0.75720    1.000
    C16      C        0.07130    0.67206    0.76820    1.000
    H11      H        0.99390    0.69630    0.74720    1.000
    C17      C        0.97700    0.56426    0.83770    1.000
    O5       O        0.04840    0.45189    0.91530    1.000
    O6       O        0.39440    0.44686    0.94420    1.000
    O7       O        0.40830    0.03476    0.61270    1.000
    O8       O        0.71870    0.06532    0.68990    1.000
    N3       N        0.06620    0.27085    0.76260    1.000
    N4       N        0.11480    0.20943    0.71820    1.000
    C18      C        0.20370    0.24066    0.78600    1.000
    H12      H        0.34150    0.24140    0.84150    1.000
    C19      C        0.88430    0.25834    0.67840    1.000
    H13      H        0.76130    0.27390    0.64650    1.000
    C20      C        0.91110    0.22012    0.64900    1.000
    H14      H        0.81170    0.20360    0.59260    1.000
    C21      C        0.10840    0.31093    0.80900    1.000
    C22      C        0.95960    0.33130    0.84610    1.000
    H15      H        0.83320    0.31850    0.84690    1.000
    C23      C        0.99630    0.37078    0.88230    1.000
    H16      H        0.89400    0.38520    0.90800    1.000
    C24      C        0.18050    0.38958    0.88170    1.000
    C25      C        0.33230    0.36841    0.84850    1.000
    H17      H        0.46120    0.38100    0.85140    1.000
    C26      C        0.29760    0.32882    0.81070    1.000
    H18      H        0.40080    0.31420    0.78640    1.000
    C27      C        0.21170    0.43325    0.91770    1.000
    C28      C        0.21140    0.17201    0.70860    1.000
    C29      C        0.10100    0.13732    0.68130    1.000
    H19      H        0.95470    0.13740    0.67090    1.000
    C30      C        0.19940    0.10196    0.66860    1.000
    H20      H        0.11980    0.07810    0.64640    1.000
    C31      C        0.41440    0.10111    0.68820    1.000
    C32      C        0.52930    0.13649    0.72390    1.000
    H21      H        0.67750    0.13600    0.74280    1.000
    C33      C        0.42870    0.17206    0.73180    1.000
    H22      H        0.50610    0.19630    0.75280    1.000
    C34      C        0.52300    0.06426    0.66230    1.000
    O9       O        0.54840    0.04811    0.41530    1.000
    O10      O        0.89440    0.05314    0.44420    1.000
    O11      O        0.90830    0.46524    0.11270    1.000
    O12      O        0.21870    0.43468    0.18990    1.000
    N5       N        0.56620    0.22915    0.26260    1.000
    N6       N        0.61480    0.29057    0.21820    1.000
    C35      C        0.70370    0.25934    0.28600    1.000
    H23      H        0.84150    0.25860    0.34150    1.000
    C36      C        0.38430    0.24166    0.17840    1.000
    H24      H        0.26130    0.22610    0.14650    1.000
    C37      C        0.41110    0.27988    0.14900    1.000
    H25      H        0.31170    0.29640    0.09260    1.000
    C38      C        0.60840    0.18907    0.30900    1.000
    C39      C        0.45960    0.16870    0.34610    1.000
    H26      H        0.33320    0.18150    0.34690    1.000
    C40      C        0.49630    0.12922    0.38230    1.000
    H27      H        0.39400    0.11480    0.40800    1.000
    C41      C        0.68050    0.11042    0.38170    1.000
    C42      C        0.83230    0.13159    0.34850    1.000
    H28      H        0.96120    0.11900    0.35140    1.000
    C43      C        0.79760    0.17118    0.31070    1.000
    H29      H        0.90080    0.18580    0.28640    1.000
    C44      C        0.71170    0.06675    0.41770    1.000
    C45      C        0.71140    0.32799    0.20860    1.000
    C46      C        0.60100    0.36268    0.18130    1.000
    H30      H        0.45470    0.36260    0.17090    1.000
    C47      C        0.69940    0.39804    0.16860    1.000
    H31      H        0.61980    0.42190    0.14640    1.000
    C48      C        0.91440    0.39889    0.18820    1.000
    C49      C        0.02930    0.36351    0.22390    1.000
    H32      H        0.17750    0.36400    0.24280    1.000
    C50      C        0.92870    0.32794    0.23180    1.000
    H33      H        0.00610    0.30370    0.25280    1.000
    C51      C        0.02300    0.43574    0.16230    1.000
    O13      O        0.95160    0.54811    0.08470    1.000
    O14      O        0.60560    0.55314    0.05580    1.000
    O15      O        0.59170    0.96524    0.38730    1.000
    O16      O        0.28130    0.93468    0.31010    1.000
    N7       N        0.93380    0.72915    0.23740    1.000
    N8       N        0.88520    0.79057    0.28180    1.000
    C52      C        0.79630    0.75934    0.21400    1.000
    H34      H        0.65850    0.75860    0.15850    1.000
    C53      C        0.11570    0.74166    0.32160    1.000
    H35      H        0.23870    0.72610    0.35350    1.000
    C54      C        0.08890    0.77988    0.35100    1.000
    H36      H        0.18830    0.79640    0.40740    1.000
    C55      C        0.89160    0.68907    0.19100    1.000
    C56      C        0.04040    0.66870    0.15390    1.000
    H37      H        0.16680    0.68150    0.15310    1.000
    C57      C        0.00370    0.62922    0.11770    1.000
    H38      H        0.10600    0.61480    0.09200    1.000
    C58      C        0.81950    0.61042    0.11830    1.000
    C59      C        0.66770    0.63159    0.15150    1.000
    H39      H        0.53880    0.61900    0.14860    1.000
    C60      C        0.70240    0.67118    0.18930    1.000
    H40      H        0.59920    0.68580    0.21360    1.000
    C61      C        0.78830    0.56675    0.08230    1.000
    C62      C        0.78860    0.82799    0.29140    1.000
    C63      C        0.89900    0.86268    0.31870    1.000
    H41      H        0.04530    0.86260    0.32910    1.000
    C64      C        0.80060    0.89804    0.33140    1.000
    H42      H        0.88020    0.92190    0.35360    1.000
    C65      C        0.58560    0.89889    0.31180    1.000
    C66      C        0.47070    0.86351    0.27610    1.000
    H43      H        0.32250    0.86400    0.25720    1.000
    C67      C        0.57130    0.82794    0.26820    1.000
    H44      H        0.49390    0.80370    0.24720    1.000
    C68      C        0.47700    0.93574    0.33770    1.000
    Cu1      Cu       0.50000    0.00000    0.50000    1.000
    Cu2      Cu       0.00000    0.50000    0.00000    1.000
    Cu3      Cu       0.00000    0.00000    0.50000    1.000
    Cu4      Cu       0.50000    0.50000    0.00000    1.000
