# CIF file generated by openbabel 3.1.0, see https://openbabel.org
data_I
_chemical_name_common 'image0'
_cell_length_a 7.979
_cell_length_b 12.095
_cell_length_c 12.297
_cell_angle_alpha 111.681
_cell_angle_beta 89.932
_cell_angle_gamma 100.158
_space_group_name_H-M_alt 'P 1'
_space_group_name_Hall 'P 1'
loop_
    _symmetry_equiv_pos_as_xyz
    x,y,z
loop_
    _atom_site_label
    _atom_site_type_symbol
    _atom_site_fract_x
    _atom_site_fract_y
    _atom_site_fract_z
    _atom_site_occupancy
    C1       C        0.64610    0.42430    0.14350    1.000
    C2       C        0.71810    0.31100    0.08550    1.000
    H1       H        0.73900    0.27760    0.14370    1.000
    H2       H        0.63440    0.25140    0.02620    1.000
    C3       C        0.88570    0.33370    0.02770    1.000
    H3       H        0.96250    0.40250    0.08390    1.000
    H4       H        0.93940    0.26360    0.00930    1.000
    C4       C        0.86310    0.35810    0.91720    1.000
    C5       C        0.14360    0.42350    0.30190    1.000
    C6       C        0.21600    0.30790    0.27550    1.000
    C7       C        0.38410    0.33030    0.34880    1.000
    C8       C        0.36520    0.36060    0.47810    1.000
    C9       C        0.32590    0.86530    0.32080    1.000
    C10      C        0.24490    0.97410    0.36410    1.000
    H5       H        0.28610    0.02710    0.32290    1.000
    H6       H        0.12220    0.94920    0.34740    1.000
    C11      C        0.28360    0.04220    0.49350    1.000
    H7       H        0.40410    0.07840    0.50800    1.000
    H8       H        0.26180    0.98520    0.53270    1.000
    C12      C        0.18090    0.14100    0.54710    1.000
    La1      La       0.99062    0.64541    0.35392    1.000
    La2      La       0.49033    0.64508    0.25104    1.000
    O1       O        0.73650    0.51570    0.21740    1.000
    O2       O        0.49240    0.42460    0.11910    1.000
    O3       O        0.23340    0.51540    0.29380    1.000
    O4       O        0.99190    0.42600    0.32720    1.000
    O5       O        0.27220    0.77960    0.35670    1.000
    O6       O        0.44580    0.85780    0.25690    1.000
    O7       O        0.73180    0.39350    0.90320    1.000
    O8       O        0.98520    0.34570    0.85000    1.000
    O9       O        0.23070    0.21960    0.64990    1.000
    O10      O        0.05360    0.14650    0.49380    1.000
    O11      O        0.48700    0.34910    0.53770    1.000
    O12      O        0.23170    0.39720    0.52020    1.000
    C13      C        0.35390    0.57570    0.85650    1.000
    C14      C        0.28190    0.68900    0.91450    1.000
    H9       H        0.26100    0.72240    0.85630    1.000
    H10      H        0.36560    0.74860    0.97380    1.000
    C15      C        0.11430    0.66630    0.97230    1.000
    H11      H        0.03750    0.59750    0.91610    1.000
    H12      H        0.06060    0.73640    0.99070    1.000
    C16      C        0.13690    0.64190    0.08280    1.000
    C17      C        0.85640    0.57650    0.69810    1.000
    C18      C        0.78400    0.69210    0.72450    1.000
    C19      C        0.61590    0.66970    0.65120    1.000
    C20      C        0.63480    0.63940    0.52190    1.000
    C21      C        0.67410    0.13470    0.67920    1.000
    C22      C        0.75510    0.02590    0.63590    1.000
    H13      H        0.71390    0.97290    0.67710    1.000
    H14      H        0.87780    0.05080    0.65260    1.000
    C23      C        0.71640    0.95780    0.50650    1.000
    H15      H        0.59590    0.92160    0.49200    1.000
    H16      H        0.73820    0.01480    0.46730    1.000
    C24      C        0.81910    0.85900    0.45290    1.000
    La3      La       0.00938    0.35459    0.64608    1.000
    La4      La       0.50967    0.35492    0.74896    1.000
    O13      O        0.26350    0.48430    0.78260    1.000
    O14      O        0.50760    0.57540    0.88090    1.000
    O15      O        0.76660    0.48460    0.70620    1.000
    O16      O        0.00810    0.57400    0.67280    1.000
    O17      O        0.72780    0.22040    0.64330    1.000
    O18      O        0.55420    0.14220    0.74310    1.000
    O19      O        0.26820    0.60650    0.09680    1.000
    O20      O        0.01480    0.65430    0.15000    1.000
    O21      O        0.76930    0.78040    0.35010    1.000
    O22      O        0.94640    0.85350    0.50620    1.000
    O23      O        0.51300    0.65090    0.46230    1.000
    O24      O        0.76830    0.60280    0.47980    1.000
