# CIF file generated by openbabel 3.1.0, see https://openbabel.org
data_I
_chemical_name_common 'image0'
_cell_length_a 11.8582
_cell_length_b 28.064
_cell_length_c 16.7331
_cell_angle_alpha 90
_cell_angle_beta 96.876
_cell_angle_gamma 90
_space_group_name_H-M_alt 'P 1'
_space_group_name_Hall 'P 1'
loop_
    _symmetry_equiv_pos_as_xyz
    x,y,z
loop_
    _atom_site_label
    _atom_site_type_symbol
    _atom_site_fract_x
    _atom_site_fract_y
    _atom_site_fract_z
    _atom_site_occupancy
    Mg1      Mg       0.42380    0.31274    0.01240    1.000
    Mg2      Mg       0.37410    0.81689    0.49070    1.000
    O1       O        0.36260    0.32940    0.90020    1.000
    O2       O        0.17640    0.33650    0.90220    1.000
    O3       O        0.27960    0.62380    0.88350    1.000
    H1       H        0.25700    0.63900    0.92300    1.000
    O4       O        0.11420    0.58950    0.89440    1.000
    O5       O        0.31840    0.74850    0.48700    1.000
    O6       O        0.13230    0.74440    0.49280    1.000
    O7       O        0.37100    0.58630    0.08540    1.000
    O8       O        0.20740    0.62010    0.10050    1.000
    H2       H        0.22500    0.63750    0.06200    1.000
    O9       O        0.44140    0.31790    0.13930    1.000
    O10      O        0.27720    0.33930    0.07400    1.000
    O11      O        0.26890    0.18730    0.51130    1.000
    O12      O        0.08460    0.20110    0.49300    1.000
    C1       C        0.24660    0.44420    0.56760    1.000
    C2       C        0.24530    0.49420    0.56470    1.000
    C3       C        0.25180    0.51860    0.49270    1.000
    C4       C        0.26070    0.49330    0.42180    1.000
    C5       C        0.26380    0.44300    0.42370    1.000
    C6       C        0.25440    0.41970    0.49580    1.000
    C7       C        0.24730    0.41850    0.64570    1.000
    C8       C        0.34390    0.41750    0.69880    1.000
    H3       H        0.40730    0.43420    0.68650    1.000
    C9       C        0.35050    0.39250    0.76970    1.000
    H4       H        0.41870    0.39170    0.80350    1.000
    C10      C        0.25700    0.36850    0.79150    1.000
    C11      C        0.15760    0.37010    0.73780    1.000
    H5       H        0.09280    0.35480    0.75100    1.000
    C12      C        0.15360    0.39370    0.66640    1.000
    H6       H        0.08700    0.39320    0.63090    1.000
    C13      C        0.23490    0.52070    0.64080    1.000
    C14      C        0.31840    0.55070    0.67600    1.000
    H7       H        0.38320    0.55540    0.65060    1.000
    C15      C        0.30950    0.57400    0.74730    1.000
    H8       H        0.36880    0.59300    0.77050    1.000
    C16      C        0.21230    0.56910    0.78400    1.000
    C17      C        0.12600    0.53990    0.75030    1.000
    H9       H        0.06070    0.53600    0.77530    1.000
    C18      C        0.13720    0.51650    0.67940    1.000
    H10      H        0.07800    0.49740    0.65650    1.000
    C19      C        0.24630    0.57230    0.49090    1.000
    C20      C        0.34200    0.60000    0.48410    1.000
    H11      H        0.41130    0.58530    0.47990    1.000
    C21      C        0.33540    0.64890    0.48360    1.000
    H12      H        0.40060    0.66660    0.47910    1.000
    C22      C        0.23500    0.67240    0.48970    1.000
    C23      C        0.14050    0.64570    0.49560    1.000
    H13      H        0.07130    0.66090    0.49800    1.000
    C24      C        0.14530    0.59590    0.49810    1.000
    H14      H        0.08030    0.57860    0.50470    1.000
    C25      C        0.26700    0.51890    0.34480    1.000
    C26      C        0.36320    0.51510    0.30480    1.000
    H15      H        0.42500    0.49720    0.32750    1.000
    C27      C        0.36760    0.53740    0.23230    1.000
    H16      H        0.43160    0.53360    0.20580    1.000
    C28      C        0.27820    0.56580    0.19750    1.000
    C29      C        0.18340    0.56950    0.23860    1.000
    H17      H        0.12220    0.58820    0.21760    1.000
    C30      C        0.17950    0.54580    0.30950    1.000
    H18      H        0.11400    0.54830    0.33490    1.000
    C31      C        0.28030    0.41510    0.35020    1.000
    C32      C        0.37820    0.38890    0.34710    1.000
    H19      H        0.43280    0.38850    0.39190    1.000
    C33      C        0.39760    0.36320    0.27970    1.000
    H20      H        0.46460    0.34600    0.27990    1.000
    C34      C        0.31930    0.36290    0.21240    1.000
    C35      C        0.22050    0.38860    0.21440    1.000
    H21      H        0.16600    0.38870    0.16950    1.000
    C36      C        0.20100    0.41420    0.28230    1.000
    H22      H        0.13350    0.43110    0.28220    1.000
    C37      C        0.24300    0.36580    0.49570    1.000
    C38      C        0.32530    0.33600    0.53300    1.000
    H23      H        0.39270    0.34850    0.55860    1.000
    C39      C        0.30720    0.28720    0.53240    1.000
    H24      H        0.36450    0.26720    0.55590    1.000
    C40      C        0.20780    0.26760    0.49820    1.000
    C41      C        0.12500    0.29760    0.46070    1.000
    H25      H        0.05600    0.28520    0.43750    1.000
    C42      C        0.14560    0.34650    0.45790    1.000
    H26      H        0.09190    0.36620    0.42960    1.000
    C43      C        0.26640    0.34270    0.87050    1.000
    C44      C        0.19710    0.59470    0.85970    1.000
    C45      C        0.22800    0.72620    0.49010    1.000
    C46      C        0.28940    0.59030    0.12080    1.000
    C47      C        0.34650    0.33760    0.13820    1.000
    C48      C        0.18510    0.21540    0.50160    1.000
    Mg3      Mg       0.07620    0.81274    0.48760    1.000
    Mg4      Mg       0.12590    0.31689    0.00930    1.000
    O13      O        0.13740    0.82940    0.59980    1.000
    O14      O        0.32360    0.83650    0.59780    1.000
    O15      O        0.22040    0.12380    0.61650    1.000
    H27      H        0.24300    0.13900    0.57700    1.000
    O16      O        0.38580    0.08950    0.60560    1.000
    O17      O        0.18160    0.24850    0.01300    1.000
    O18      O        0.36770    0.24440    0.00720    1.000
    O19      O        0.12900    0.08630    0.41460    1.000
    O20      O        0.29260    0.12010    0.39950    1.000
    H28      H        0.27500    0.13750    0.43800    1.000
    O21      O        0.05860    0.81790    0.36070    1.000
    O22      O        0.22280    0.83930    0.42600    1.000
    O23      O        0.23110    0.68730    0.98870    1.000
    O24      O        0.41540    0.70110    0.00700    1.000
    C49      C        0.25340    0.94420    0.93240    1.000
    C50      C        0.25470    0.99420    0.93530    1.000
    C51      C        0.24820    0.01860    0.00730    1.000
    C52      C        0.23930    0.99330    0.07820    1.000
    C53      C        0.23620    0.94300    0.07630    1.000
    C54      C        0.24560    0.91970    0.00420    1.000
    C55      C        0.25270    0.91850    0.85430    1.000
    C56      C        0.15610    0.91750    0.80120    1.000
    H29      H        0.09270    0.93420    0.81350    1.000
    C57      C        0.14950    0.89250    0.73030    1.000
    H30      H        0.08130    0.89170    0.69650    1.000
    C58      C        0.24300    0.86850    0.70850    1.000
    C59      C        0.34240    0.87010    0.76220    1.000
    H31      H        0.40720    0.85480    0.74900    1.000
    C60      C        0.34640    0.89370    0.83360    1.000
    H32      H        0.41300    0.89320    0.86910    1.000
    C61      C        0.26510    0.02070    0.85920    1.000
    C62      C        0.18160    0.05070    0.82400    1.000
    H33      H        0.11680    0.05540    0.84940    1.000
    C63      C        0.19050    0.07400    0.75270    1.000
    H34      H        0.13120    0.09300    0.72950    1.000
    C64      C        0.28770    0.06910    0.71600    1.000
    C65      C        0.37400    0.03990    0.74970    1.000
    H35      H        0.43930    0.03600    0.72470    1.000
    C66      C        0.36280    0.01650    0.82060    1.000
    H36      H        0.42200    0.99740    0.84350    1.000
    C67      C        0.25370    0.07230    0.00910    1.000
    C68      C        0.15800    0.10000    0.01590    1.000
    H37      H        0.08870    0.08530    0.02010    1.000
    C69      C        0.16460    0.14890    0.01640    1.000
    H38      H        0.09940    0.16660    0.02090    1.000
    C70      C        0.26500    0.17240    0.01030    1.000
    C71      C        0.35950    0.14570    0.00440    1.000
    H39      H        0.42870    0.16090    0.00200    1.000
    C72      C        0.35470    0.09590    0.00190    1.000
    H40      H        0.41970    0.07860    0.99530    1.000
    C73      C        0.23300    0.01890    0.15520    1.000
    C74      C        0.13680    0.01510    0.19520    1.000
    H41      H        0.07500    0.99720    0.17250    1.000
    C75      C        0.13240    0.03740    0.26770    1.000
    H42      H        0.06840    0.03360    0.29420    1.000
    C76      C        0.22180    0.06580    0.30250    1.000
    C77      C        0.31660    0.06950    0.26140    1.000
    H43      H        0.37780    0.08820    0.28240    1.000
    C78      C        0.32050    0.04580    0.19050    1.000
    H44      H        0.38600    0.04830    0.16510    1.000
    C79      C        0.21970    0.91510    0.14980    1.000
    C80      C        0.12180    0.88890    0.15290    1.000
    H45      H        0.06720    0.88850    0.10810    1.000
    C81      C        0.10240    0.86320    0.22030    1.000
    H46      H        0.03540    0.84600    0.22010    1.000
    C82      C        0.18070    0.86290    0.28760    1.000
    C83      C        0.27950    0.88860    0.28560    1.000
    H47      H        0.33400    0.88870    0.33050    1.000
    C84      C        0.29900    0.91420    0.21770    1.000
    H48      H        0.36650    0.93110    0.21780    1.000
    C85      C        0.25700    0.86580    0.00430    1.000
    C86      C        0.17470    0.83600    0.96700    1.000
    H49      H        0.10730    0.84850    0.94140    1.000
    C87      C        0.19280    0.78720    0.96760    1.000
    H50      H        0.13550    0.76720    0.94410    1.000
    C88      C        0.29220    0.76760    0.00180    1.000
    C89      C        0.37500    0.79760    0.03930    1.000
    H51      H        0.44400    0.78520    0.06250    1.000
    C90      C        0.35440    0.84650    0.04210    1.000
    H52      H        0.40810    0.86620    0.07040    1.000
    C91      C        0.23360    0.84270    0.62950    1.000
    C92      C        0.30290    0.09470    0.64030    1.000
    C93      C        0.27200    0.22620    0.00990    1.000
    C94      C        0.21060    0.09030    0.37920    1.000
    C95      C        0.15350    0.83760    0.36180    1.000
    C96      C        0.31490    0.71540    0.99840    1.000
    Mg5      Mg       0.57620    0.68726    0.98760    1.000
    Mg6      Mg       0.62590    0.18311    0.50930    1.000
    O25      O        0.63740    0.67060    0.09980    1.000
    O26      O        0.82360    0.66350    0.09780    1.000
    O27      O        0.72040    0.37620    0.11650    1.000
    H53      H        0.74300    0.36100    0.07700    1.000
    O28      O        0.88580    0.41050    0.10560    1.000
    O29      O        0.68160    0.25150    0.51300    1.000
    O30      O        0.86770    0.25560    0.50720    1.000
    O31      O        0.62900    0.41370    0.91460    1.000
    O32      O        0.79260    0.37990    0.89950    1.000
    H54      H        0.77500    0.36250    0.93800    1.000
    O33      O        0.55860    0.68210    0.86070    1.000
    O34      O        0.72280    0.66070    0.92600    1.000
    O35      O        0.73110    0.81270    0.48870    1.000
    O36      O        0.91540    0.79890    0.50700    1.000
    C97      C        0.75340    0.55580    0.43240    1.000
    C98      C        0.75470    0.50580    0.43530    1.000
    C99      C        0.74820    0.48140    0.50730    1.000
    C100     C        0.73930    0.50670    0.57820    1.000
    C101     C        0.73620    0.55700    0.57630    1.000
    C102     C        0.74560    0.58030    0.50420    1.000
    C103     C        0.75270    0.58150    0.35430    1.000
    C104     C        0.65610    0.58250    0.30120    1.000
    H55      H        0.59270    0.56580    0.31350    1.000
    C105     C        0.64950    0.60750    0.23030    1.000
    H56      H        0.58130    0.60830    0.19650    1.000
    C106     C        0.74300    0.63150    0.20850    1.000
    C107     C        0.84240    0.62990    0.26220    1.000
    H57      H        0.90720    0.64520    0.24900    1.000
    C108     C        0.84640    0.60630    0.33360    1.000
    H58      H        0.91300    0.60680    0.36910    1.000
    C109     C        0.76510    0.47930    0.35920    1.000
    C110     C        0.68160    0.44930    0.32400    1.000
    H59      H        0.61680    0.44460    0.34940    1.000
    C111     C        0.69050    0.42600    0.25270    1.000
    H60      H        0.63120    0.40700    0.22950    1.000
    C112     C        0.78770    0.43090    0.21600    1.000
    C113     C        0.87400    0.46010    0.24970    1.000
    H61      H        0.93930    0.46400    0.22470    1.000
    C114     C        0.86280    0.48350    0.32060    1.000
    H62      H        0.92200    0.50260    0.34350    1.000
    C115     C        0.75370    0.42770    0.50910    1.000
    C116     C        0.65800    0.40000    0.51590    1.000
    H63      H        0.58870    0.41470    0.52010    1.000
    C117     C        0.66460    0.35110    0.51640    1.000
    H64      H        0.59940    0.33340    0.52090    1.000
    C118     C        0.76500    0.32760    0.51030    1.000
    C119     C        0.85950    0.35430    0.50440    1.000
    H65      H        0.92870    0.33910    0.50200    1.000
    C120     C        0.85470    0.40410    0.50190    1.000
    H66      H        0.91970    0.42140    0.49530    1.000
    C121     C        0.73300    0.48110    0.65520    1.000
    C122     C        0.63680    0.48490    0.69520    1.000
    H67      H        0.57500    0.50280    0.67250    1.000
    C123     C        0.63240    0.46260    0.76770    1.000
    H68      H        0.56840    0.46640    0.79420    1.000
    C124     C        0.72180    0.43420    0.80250    1.000
    C125     C        0.81660    0.43050    0.76140    1.000
    H69      H        0.87780    0.41180    0.78240    1.000
    C126     C        0.82050    0.45420    0.69050    1.000
    H70      H        0.88600    0.45170    0.66510    1.000
    C127     C        0.71970    0.58490    0.64980    1.000
    C128     C        0.62180    0.61110    0.65290    1.000
    H71      H        0.56720    0.61150    0.60810    1.000
    C129     C        0.60240    0.63680    0.72030    1.000
    H72      H        0.53540    0.65400    0.72010    1.000
    C130     C        0.68070    0.63710    0.78760    1.000
    C131     C        0.77950    0.61140    0.78560    1.000
    H73      H        0.83400    0.61130    0.83050    1.000
    C132     C        0.79900    0.58580    0.71770    1.000
    H74      H        0.86650    0.56890    0.71780    1.000
    C133     C        0.75700    0.63420    0.50430    1.000
    C134     C        0.67470    0.66400    0.46700    1.000
    H75      H        0.60730    0.65150    0.44140    1.000
    C135     C        0.69280    0.71280    0.46760    1.000
    H76      H        0.63550    0.73280    0.44410    1.000
    C136     C        0.79220    0.73240    0.50180    1.000
    C137     C        0.87500    0.70240    0.53930    1.000
    H77      H        0.94400    0.71480    0.56250    1.000
    C138     C        0.85440    0.65350    0.54210    1.000
    H78      H        0.90810    0.63380    0.57040    1.000
    C139     C        0.73360    0.65730    0.12950    1.000
    C140     C        0.80290    0.40530    0.14030    1.000
    C141     C        0.77200    0.27380    0.50990    1.000
    C142     C        0.71060    0.40970    0.87920    1.000
    C143     C        0.65350    0.66240    0.86180    1.000
    C144     C        0.81490    0.78460    0.49840    1.000
    Mg7      Mg       0.92380    0.18726    0.51240    1.000
    Mg8      Mg       0.87410    0.68311    0.99070    1.000
    O37      O        0.86260    0.17060    0.40020    1.000
    O38      O        0.67640    0.16350    0.40220    1.000
    O39      O        0.77960    0.87620    0.38350    1.000
    H79      H        0.75700    0.86100    0.42300    1.000
    O40      O        0.61420    0.91050    0.39440    1.000
    O41      O        0.81840    0.75150    0.98700    1.000
    O42      O        0.63230    0.75560    0.99280    1.000
    O43      O        0.87100    0.91370    0.58540    1.000
    O44      O        0.70740    0.87990    0.60050    1.000
    H80      H        0.72500    0.86250    0.56200    1.000
    O45      O        0.94140    0.18210    0.63930    1.000
    O46      O        0.77720    0.16070    0.57400    1.000
    O47      O        0.76890    0.31270    0.01130    1.000
    O48      O        0.58460    0.29890    0.99300    1.000
    C145     C        0.74660    0.05580    0.06760    1.000
    C146     C        0.74530    0.00580    0.06470    1.000
    C147     C        0.75180    0.98140    0.99270    1.000
    C148     C        0.76070    0.00670    0.92180    1.000
    C149     C        0.76380    0.05700    0.92370    1.000
    C150     C        0.75440    0.08030    0.99580    1.000
    C151     C        0.74730    0.08150    0.14570    1.000
    C152     C        0.84390    0.08250    0.19880    1.000
    H81      H        0.90730    0.06580    0.18650    1.000
    C153     C        0.85050    0.10750    0.26970    1.000
    H82      H        0.91870    0.10830    0.30350    1.000
    C154     C        0.75700    0.13150    0.29150    1.000
    C155     C        0.65760    0.12990    0.23780    1.000
    H83      H        0.59280    0.14520    0.25100    1.000
    C156     C        0.65360    0.10630    0.16640    1.000
    H84      H        0.58700    0.10680    0.13090    1.000
    C157     C        0.73490    0.97930    0.14080    1.000
    C158     C        0.81840    0.94930    0.17600    1.000
    H85      H        0.88320    0.94460    0.15060    1.000
    C159     C        0.80950    0.92600    0.24730    1.000
    H86      H        0.86880    0.90700    0.27050    1.000
    C160     C        0.71230    0.93090    0.28400    1.000
    C161     C        0.62600    0.96010    0.25030    1.000
    H87      H        0.56070    0.96400    0.27530    1.000
    C162     C        0.63720    0.98350    0.17940    1.000
    H88      H        0.57800    0.00260    0.15650    1.000
    C163     C        0.74630    0.92770    0.99090    1.000
    C164     C        0.84200    0.90000    0.98410    1.000
    H89      H        0.91130    0.91470    0.97990    1.000
    C165     C        0.83540    0.85110    0.98360    1.000
    H90      H        0.90060    0.83340    0.97910    1.000
    C166     C        0.73500    0.82760    0.98970    1.000
    C167     C        0.64050    0.85430    0.99560    1.000
    H91      H        0.57130    0.83910    0.99800    1.000
    C168     C        0.64530    0.90410    0.99810    1.000
    H92      H        0.58030    0.92140    0.00470    1.000
    C169     C        0.76700    0.98110    0.84480    1.000
    C170     C        0.86320    0.98490    0.80480    1.000
    H93      H        0.92500    0.00280    0.82750    1.000
    C171     C        0.86760    0.96260    0.73230    1.000
    H94      H        0.93160    0.96640    0.70580    1.000
    C172     C        0.77820    0.93420    0.69750    1.000
    C173     C        0.68340    0.93050    0.73860    1.000
    H95      H        0.62220    0.91180    0.71760    1.000
    C174     C        0.67950    0.95420    0.80950    1.000
    H96      H        0.61400    0.95170    0.83490    1.000
    C175     C        0.78030    0.08490    0.85020    1.000
    C176     C        0.87820    0.11110    0.84710    1.000
    H97      H        0.93280    0.11150    0.89190    1.000
    C177     C        0.89760    0.13680    0.77970    1.000
    H98      H        0.96460    0.15400    0.77990    1.000
    C178     C        0.81930    0.13710    0.71240    1.000
    C179     C        0.72050    0.11140    0.71440    1.000
    H99      H        0.66600    0.11130    0.66950    1.000
    C180     C        0.70100    0.08580    0.78230    1.000
    H100     H        0.63350    0.06890    0.78220    1.000
    C181     C        0.74300    0.13420    0.99570    1.000
    C182     C        0.82530    0.16400    0.03300    1.000
    H101     H        0.89270    0.15150    0.05860    1.000
    C183     C        0.80720    0.21280    0.03240    1.000
    H102     H        0.86450    0.23280    0.05590    1.000
    C184     C        0.70780    0.23240    0.99820    1.000
    C185     C        0.62500    0.20240    0.96070    1.000
    H103     H        0.55600    0.21480    0.93750    1.000
    C186     C        0.64560    0.15350    0.95790    1.000
    H104     H        0.59190    0.13380    0.92960    1.000
    C187     C        0.76640    0.15730    0.37050    1.000
    C188     C        0.69710    0.90530    0.35970    1.000
    C189     C        0.72800    0.77380    0.99010    1.000
    C190     C        0.78940    0.90970    0.62080    1.000
    C191     C        0.84650    0.16240    0.63820    1.000
    C192     C        0.68510    0.28460    0.00160    1.000
