# CIF file generated by openbabel 3.1.0, see https://openbabel.org
data_I
_chemical_name_common 'MODDEP_clean'
_cell_length_a 8.8802
_cell_length_b 12.08
_cell_length_c 16.615
_cell_angle_alpha 90
_cell_angle_beta 90
_cell_angle_gamma 109.32
_space_group_name_H-M_alt 'P 1'
_space_group_name_Hall 'P 1'
loop_
    _symmetry_equiv_pos_as_xyz
    x,y,z
loop_
    _atom_site_label
    _atom_site_type_symbol
    _atom_site_fract_x
    _atom_site_fract_y
    _atom_site_fract_z
    _atom_site_occupancy
    Dy1      Dy       0.93315    0.95259    0.88221    1.000
    Dy2      Dy       0.56685    0.04741    0.38221    1.000
    Dy3      Dy       0.06685    0.04741    0.11779    1.000
    Dy4      Dy       0.43315    0.95259    0.61779    1.000
    H1       H        0.47010    0.28030    0.93360    1.000
    H2       H        0.37780    0.36110    0.96690    1.000
    H3       H        0.62860    0.46500    0.93400    1.000
    H4       H        0.40330    0.47420    0.72610    1.000
    H5       H        0.82220    0.64180    0.90090    1.000
    H6       H        0.59670    0.65300    0.69420    1.000
    H7       H        0.90920    0.72550    0.67710    1.000
    H8       H        0.82720    0.82220    0.66830    1.000
    H9       H        0.25100    0.79460    0.07020    1.000
    H10      H        0.38120    0.86110    0.00750    1.000
    H11      H        0.20140    0.50400    0.91130    1.000
    H12      H        0.01350    0.66580    0.07310    1.000
    H13      H        0.02990    0.71970    0.43360    1.000
    H14      H        0.12220    0.63890    0.46690    1.000
    H15      H        0.87140    0.53500    0.43400    1.000
    H16      H        0.09670    0.52580    0.22610    1.000
    H17      H        0.67780    0.35820    0.40090    1.000
    H18      H        0.90330    0.34700    0.19420    1.000
    H19      H        0.59080    0.27450    0.17710    1.000
    H20      H        0.67280    0.17780    0.16830    1.000
    H21      H        0.24900    0.20540    0.57020    1.000
    H22      H        0.11880    0.13890    0.50750    1.000
    H23      H        0.29860    0.49600    0.41130    1.000
    H24      H        0.48650    0.33420    0.57310    1.000
    H25      H        0.52990    0.71970    0.06640    1.000
    H26      H        0.62220    0.63890    0.03310    1.000
    H27      H        0.37140    0.53500    0.06600    1.000
    H28      H        0.59670    0.52580    0.27390    1.000
    H29      H        0.17780    0.35820    0.09910    1.000
    H30      H        0.40330    0.34700    0.30580    1.000
    H31      H        0.09080    0.27450    0.32290    1.000
    H32      H        0.17280    0.17780    0.33170    1.000
    H33      H        0.74900    0.20540    0.92980    1.000
    H34      H        0.61880    0.13890    0.99250    1.000
    H35      H        0.79860    0.49600    0.08870    1.000
    H36      H        0.98650    0.33420    0.92690    1.000
    H37      H        0.97010    0.28030    0.56640    1.000
    H38      H        0.87780    0.36110    0.53310    1.000
    H39      H        0.12860    0.46500    0.56600    1.000
    H40      H        0.90330    0.47420    0.77390    1.000
    H41      H        0.32220    0.64180    0.59910    1.000
    H42      H        0.09670    0.65300    0.80580    1.000
    H43      H        0.40920    0.72550    0.82290    1.000
    H44      H        0.32720    0.82220    0.83170    1.000
    H45      H        0.75100    0.79460    0.42980    1.000
    H46      H        0.88120    0.86110    0.49250    1.000
    H47      H        0.70140    0.50400    0.58870    1.000
    H48      H        0.51350    0.66580    0.42690    1.000
    C1       C        0.22980    0.19400    0.94350    1.000
    C2       C        0.37430    0.30120    0.92730    1.000
    C3       C        0.49500    0.45220    0.83340    1.000
    C4       C        0.62140    0.50230    0.88600    1.000
    C5       C        0.48660    0.50820    0.76170    1.000
    C6       C        0.73690    0.60870    0.86620    1.000
    C7       C        0.60230    0.61540    0.74240    1.000
    C8       C        0.72560    0.66480    0.79630    1.000
    C9       C        0.90020    0.79650    0.70080    1.000
    C10      C        0.06200    0.89090    0.70380    1.000
    C11      C        0.15810    0.85990    0.97610    1.000
    C12      C        0.27370    0.80630    0.01310    1.000
    C13      C        0.13000    0.60200    0.99080    1.000
    C14      C        0.12040    0.50250    0.94710    1.000
    C15      C        0.00850    0.59920    0.04370    1.000
    C16      C        0.27020    0.80600    0.44350    1.000
    C17      C        0.12570    0.69880    0.42730    1.000
    C18      C        0.00500    0.54780    0.33340    1.000
    C19      C        0.87860    0.49770    0.38600    1.000
    C20      C        0.01340    0.49180    0.26170    1.000
    C21      C        0.76310    0.39130    0.36620    1.000
    C22      C        0.89770    0.38460    0.24240    1.000
    C23      C        0.77440    0.33520    0.29630    1.000
    C24      C        0.59980    0.20350    0.20080    1.000
    C25      C        0.43800    0.10910    0.20380    1.000
    C26      C        0.34190    0.14010    0.47610    1.000
    C27      C        0.22630    0.19370    0.51310    1.000
    C28      C        0.37000    0.39800    0.49080    1.000
    C29      C        0.37960    0.49750    0.44710    1.000
    C30      C        0.49150    0.40080    0.54370    1.000
    C31      C        0.77020    0.80600    0.05650    1.000
    C32      C        0.62570    0.69880    0.07270    1.000
    C33      C        0.50500    0.54780    0.16660    1.000
    C34      C        0.37860    0.49770    0.11400    1.000
    C35      C        0.51340    0.49180    0.23830    1.000
    C36      C        0.26310    0.39130    0.13380    1.000
    C37      C        0.39770    0.38460    0.25760    1.000
    C38      C        0.27440    0.33520    0.20370    1.000
    C39      C        0.09980    0.20350    0.29920    1.000
    C40      C        0.93800    0.10910    0.29620    1.000
    C41      C        0.84190    0.14010    0.02390    1.000
    C42      C        0.72630    0.19370    0.98690    1.000
    C43      C        0.87000    0.39800    0.00920    1.000
    C44      C        0.87960    0.49750    0.05290    1.000
    C45      C        0.99150    0.40080    0.95630    1.000
    C46      C        0.72980    0.19400    0.55650    1.000
    C47      C        0.87430    0.30120    0.57270    1.000
    C48      C        0.99500    0.45220    0.66660    1.000
    C49      C        0.12140    0.50230    0.61400    1.000
    C50      C        0.98660    0.50820    0.73830    1.000
    C51      C        0.23690    0.60870    0.63380    1.000
    C52      C        0.10230    0.61540    0.75760    1.000
    C53      C        0.22560    0.66480    0.70370    1.000
    C54      C        0.40020    0.79650    0.79920    1.000
    C55      C        0.56200    0.89090    0.79620    1.000
    C56      C        0.65810    0.85990    0.52390    1.000
    C57      C        0.77370    0.80630    0.48690    1.000
    C58      C        0.63000    0.60200    0.50920    1.000
    C59      C        0.62040    0.50250    0.55290    1.000
    C60      C        0.50850    0.59920    0.45630    1.000
    O1       O        0.15930    0.12920    0.88653    1.000
    O2       O        0.19760    0.18020    0.01721    1.000
    O3       O        0.37350    0.34830    0.84898    1.000
    O4       O        0.84190    0.77420    0.78259    1.000
    O5       O        0.15000    0.89980    0.64406    1.000
    O6       O        0.09550    0.95510    0.76500    1.000
    O7       O        0.09910    0.82790    0.90891    1.000
    O8       O        0.13130    0.94200    0.01330    1.000
    O9       O        0.26690    0.69810    0.97830    1.000
    O10      O        0.34070    0.87080    0.38653    1.000
    O11      O        0.30240    0.81980    0.51721    1.000
    O12      O        0.12650    0.65170    0.34898    1.000
    O13      O        0.65810    0.22580    0.28259    1.000
    O14      O        0.35000    0.10020    0.14406    1.000
    O15      O        0.40450    0.04490    0.26500    1.000
    O16      O        0.40090    0.17210    0.40891    1.000
    O17      O        0.36870    0.05800    0.51330    1.000
    O18      O        0.23310    0.30190    0.47830    1.000
    O19      O        0.84070    0.87080    0.11347    1.000
    O20      O        0.80240    0.81980    0.98279    1.000
    O21      O        0.62650    0.65170    0.15102    1.000
    O22      O        0.15810    0.22580    0.21741    1.000
    O23      O        0.85000    0.10020    0.35594    1.000
    O24      O        0.90450    0.04490    0.23500    1.000
    O25      O        0.90090    0.17210    0.09109    1.000
    O26      O        0.86870    0.05800    0.98670    1.000
    O27      O        0.73310    0.30190    0.02170    1.000
    O28      O        0.65930    0.12920    0.61347    1.000
    O29      O        0.69760    0.18020    0.48279    1.000
    O30      O        0.87350    0.34830    0.65102    1.000
    O31      O        0.34190    0.77420    0.71741    1.000
    O32      O        0.65000    0.89980    0.85594    1.000
    O33      O        0.59550    0.95510    0.73500    1.000
    O34      O        0.59910    0.82790    0.59109    1.000
    O35      O        0.63130    0.94200    0.48670    1.000
    O36      O        0.76690    0.69810    0.52170    1.000
