# CIF file generated by openbabel 3.1.0, see https://openbabel.org
data_I
_chemical_name_common 'image0'
_cell_length_a 17.573
_cell_length_b 16.528
_cell_length_c 17.595
_cell_angle_alpha 90
_cell_angle_beta 90
_cell_angle_gamma 90
_space_group_name_H-M_alt 'P 1'
_space_group_name_Hall 'P 1'
loop_
    _symmetry_equiv_pos_as_xyz
    x,y,z
loop_
    _atom_site_label
    _atom_site_type_symbol
    _atom_site_fract_x
    _atom_site_fract_y
    _atom_site_fract_z
    _atom_site_occupancy
    N1       N        0.33460    0.66550    0.38790    1.000
    N2       N        0.16580    0.58930    0.17940    1.000
    N3       N        0.11010    0.82550    0.33540    1.000
    C1       C        0.26700    0.67890    0.34430    1.000
    C2       C        0.15890    0.75760    0.31690    1.000
    C3       C        0.22310    0.74460    0.36050    1.000
    H1       H        0.23590    0.77960    0.39980    1.000
    N4       N        0.04920    0.91710    0.40200    1.000
    C4       C        0.09250    0.85280    0.40460    1.000
    H2       H        0.10910    0.82890    0.44940    1.000
    C5       C        0.18460    0.64170    0.24140    1.000
    C6       C        0.13940    0.70800    0.25690    1.000
    H3       H        0.09670    0.71900    0.22740    1.000
    C7       C        0.24970    0.62680    0.28370    1.000
    H4       H        0.28110    0.58320    0.27220    1.000
    C8       C        0.10350    0.59190    0.13670    1.000
    H5       H        0.06440    0.62890    0.14420    1.000
    C9       C        0.36440    0.59390    0.40840    1.000
    H6       H        0.34380    0.54390    0.39590    1.000
    C10      C        0.07720    0.87720    0.28430    1.000
    H7       H        0.08010    0.87430    0.23160    1.000
    C11      C        0.38280    0.72480    0.41550    1.000
    H8       H        0.37720    0.78040    0.40980    1.000
    C12      C        0.03930    0.93330    0.32580    1.000
    H9       H        0.01110    0.97600    0.30600    1.000
    C13      C        0.20890    0.52660    0.15090    1.000
    H10      H        0.25600    0.50930    0.16860    1.000
    N5       N        0.10260    0.53700    0.08300    1.000
    C14      C        0.16940    0.49570    0.09300    1.000
    H11      H        0.18510    0.45200    0.06350    1.000
    N6       N        0.42720    0.60430    0.44880    1.000
    C15      C        0.43880    0.68660    0.45180    1.000
    H12      H        0.47960    0.71180    0.47560    1.000
    N7       N        0.16540    0.33450    0.88790    1.000
    N8       N        0.33420    0.41070    0.67940    1.000
    N9       N        0.38990    0.17450    0.83540    1.000
    C16      C        0.23300    0.32110    0.84430    1.000
    C17      C        0.34110    0.24240    0.81690    1.000
    C18      C        0.27690    0.25540    0.86050    1.000
    H13      H        0.26410    0.22040    0.89980    1.000
    N10      N        0.45080    0.08290    0.90200    1.000
    C19      C        0.40750    0.14720    0.90460    1.000
    H14      H        0.39090    0.17110    0.94940    1.000
    C20      C        0.31540    0.35830    0.74140    1.000
    C21      C        0.36060    0.29200    0.75690    1.000
    H15      H        0.40330    0.28100    0.72740    1.000
    C22      C        0.25030    0.37320    0.78370    1.000
    H16      H        0.21890    0.41680    0.77220    1.000
    C23      C        0.39650    0.40810    0.63670    1.000
    H17      H        0.43560    0.37110    0.64420    1.000
    C24      C        0.13560    0.40610    0.90840    1.000
    H18      H        0.15620    0.45610    0.89590    1.000
    C25      C        0.42280    0.12280    0.78430    1.000
    H19      H        0.41990    0.12570    0.73160    1.000
    C26      C        0.11720    0.27520    0.91550    1.000
    H20      H        0.12280    0.21960    0.90980    1.000
    C27      C        0.46070    0.06670    0.82580    1.000
    H21      H        0.48890    0.02400    0.80600    1.000
    C28      C        0.29110    0.47340    0.65090    1.000
    H22      H        0.24400    0.49070    0.66860    1.000
    N11      N        0.39740    0.46300    0.58300    1.000
    C29      C        0.33060    0.50430    0.59300    1.000
    H23      H        0.31490    0.54800    0.56350    1.000
    N12      N        0.07280    0.39570    0.94880    1.000
    C30      C        0.06120    0.31340    0.95180    1.000
    H24      H        0.02040    0.28820    0.97560    1.000
    N13      N        0.66540    0.16550    0.11210    1.000
    N14      N        0.83420    0.08930    0.32060    1.000
    N15      N        0.88990    0.32550    0.16460    1.000
    C31      C        0.73300    0.17890    0.15570    1.000
    C32      C        0.84110    0.25760    0.18310    1.000
    C33      C        0.77690    0.24460    0.13950    1.000
    H25      H        0.76410    0.27960    0.10020    1.000
    N16      N        0.95080    0.41710    0.09800    1.000
    C34      C        0.90750    0.35280    0.09540    1.000
    H26      H        0.89090    0.32890    0.05060    1.000
    C35      C        0.81540    0.14170    0.25860    1.000
    C36      C        0.86060    0.20800    0.24310    1.000
    H27      H        0.90330    0.21900    0.27260    1.000
    C37      C        0.75030    0.12680    0.21630    1.000
    H28      H        0.71890    0.08320    0.22780    1.000
    C38      C        0.89650    0.09190    0.36330    1.000
    H29      H        0.93560    0.12890    0.35580    1.000
    C39      C        0.63560    0.09390    0.09160    1.000
    H30      H        0.65620    0.04390    0.10410    1.000
    C40      C        0.92280    0.37720    0.21570    1.000
    H31      H        0.91990    0.37430    0.26840    1.000
    C41      C        0.61720    0.22480    0.08450    1.000
    H32      H        0.62280    0.28040    0.09020    1.000
    C42      C        0.96070    0.43330    0.17420    1.000
    H33      H        0.98890    0.47600    0.19400    1.000
    C43      C        0.79110    0.02660    0.34910    1.000
    H34      H        0.74400    0.00930    0.33140    1.000
    N17      N        0.89740    0.03700    0.41700    1.000
    C44      C        0.83060    0.99570    0.40700    1.000
    H35      H        0.81490    0.95200    0.43650    1.000
    N18      N        0.57280    0.10430    0.05120    1.000
    C45      C        0.56120    0.18660    0.04820    1.000
    H36      H        0.52040    0.21180    0.02440    1.000
    N19      N        0.83460    0.83450    0.61210    1.000
    N20      N        0.66580    0.91070    0.82060    1.000
    N21      N        0.61010    0.67450    0.66460    1.000
    C46      C        0.76700    0.82110    0.65570    1.000
    C47      C        0.65890    0.74240    0.68310    1.000
    C48      C        0.72310    0.75540    0.63950    1.000
    H37      H        0.73590    0.72040    0.60020    1.000
    N22      N        0.54920    0.58290    0.59800    1.000
    C49      C        0.59250    0.64720    0.59540    1.000
    H38      H        0.60910    0.67110    0.55060    1.000
    C50      C        0.68460    0.85830    0.75860    1.000
    C51      C        0.63940    0.79200    0.74310    1.000
    H39      H        0.59670    0.78100    0.77260    1.000
    C52      C        0.74970    0.87320    0.71630    1.000
    H40      H        0.78110    0.91680    0.72780    1.000
    C53      C        0.60350    0.90810    0.86330    1.000
    H41      H        0.56440    0.87110    0.85580    1.000
    C54      C        0.86440    0.90610    0.59160    1.000
    H42      H        0.84380    0.95610    0.60410    1.000
    C55      C        0.57720    0.62280    0.71570    1.000
    H43      H        0.58010    0.62570    0.76840    1.000
    C56      C        0.88280    0.77520    0.58450    1.000
    H44      H        0.87720    0.71960    0.59020    1.000
    C57      C        0.53930    0.56670    0.67420    1.000
    H45      H        0.51110    0.52400    0.69400    1.000
    C58      C        0.70890    0.97340    0.84910    1.000
    H46      H        0.75600    0.99070    0.83140    1.000
    N23      N        0.60260    0.96300    0.91700    1.000
    C59      C        0.66940    0.00430    0.90700    1.000
    H47      H        0.68510    0.04800    0.93650    1.000
    N24      N        0.92720    0.89570    0.55120    1.000
    C60      C        0.93880    0.81340    0.54820    1.000
    H48      H        0.97960    0.78820    0.52440    1.000
    N25      N        0.66540    0.33450    0.61210    1.000
    N26      N        0.83420    0.41070    0.82060    1.000
    N27      N        0.88990    0.17450    0.66460    1.000
    C61      C        0.73300    0.32110    0.65570    1.000
    C62      C        0.84110    0.24240    0.68310    1.000
    C63      C        0.77690    0.25540    0.63950    1.000
    H49      H        0.76410    0.22040    0.60020    1.000
    N28      N        0.95080    0.08290    0.59800    1.000
    C64      C        0.90750    0.14720    0.59540    1.000
    H50      H        0.89090    0.17110    0.55060    1.000
    C65      C        0.81540    0.35830    0.75860    1.000
    C66      C        0.86060    0.29200    0.74310    1.000
    H51      H        0.90330    0.28100    0.77260    1.000
    C67      C        0.75030    0.37320    0.71630    1.000
    H52      H        0.71890    0.41680    0.72780    1.000
    C68      C        0.89650    0.40810    0.86330    1.000
    H53      H        0.93560    0.37110    0.85580    1.000
    C69      C        0.63560    0.40610    0.59160    1.000
    H54      H        0.65620    0.45610    0.60410    1.000
    C70      C        0.92280    0.12280    0.71570    1.000
    H55      H        0.91990    0.12570    0.76840    1.000
    C71      C        0.61720    0.27520    0.58450    1.000
    H56      H        0.62280    0.21960    0.59020    1.000
    C72      C        0.96070    0.06670    0.67420    1.000
    H57      H        0.98890    0.02400    0.69400    1.000
    C73      C        0.79110    0.47340    0.84910    1.000
    H58      H        0.74400    0.49070    0.83140    1.000
    N29      N        0.89740    0.46300    0.91700    1.000
    C74      C        0.83060    0.50430    0.90700    1.000
    H59      H        0.81490    0.54800    0.93650    1.000
    N30      N        0.57280    0.39570    0.55120    1.000
    C75      C        0.56120    0.31340    0.54820    1.000
    H60      H        0.52040    0.28820    0.52440    1.000
    N31      N        0.83460    0.66550    0.11210    1.000
    N32      N        0.66580    0.58930    0.32060    1.000
    N33      N        0.61010    0.82550    0.16460    1.000
    C76      C        0.76700    0.67890    0.15570    1.000
    C77      C        0.65890    0.75760    0.18310    1.000
    C78      C        0.72310    0.74460    0.13950    1.000
    H61      H        0.73590    0.77960    0.10020    1.000
    N34      N        0.54920    0.91710    0.09800    1.000
    C79      C        0.59250    0.85280    0.09540    1.000
    H62      H        0.60910    0.82890    0.05060    1.000
    C80      C        0.68460    0.64170    0.25860    1.000
    C81      C        0.63940    0.70800    0.24310    1.000
    H63      H        0.59670    0.71900    0.27260    1.000
    C82      C        0.74970    0.62680    0.21630    1.000
    H64      H        0.78110    0.58320    0.22780    1.000
    C83      C        0.60350    0.59190    0.36330    1.000
    H65      H        0.56440    0.62890    0.35580    1.000
    C84      C        0.86440    0.59390    0.09160    1.000
    H66      H        0.84380    0.54390    0.10410    1.000
    C85      C        0.57720    0.87720    0.21570    1.000
    H67      H        0.58010    0.87430    0.26840    1.000
    C86      C        0.88280    0.72480    0.08450    1.000
    H68      H        0.87720    0.78040    0.09020    1.000
    C87      C        0.53930    0.93330    0.17420    1.000
    H69      H        0.51110    0.97600    0.19400    1.000
    C88      C        0.70890    0.52660    0.34910    1.000
    H70      H        0.75600    0.50930    0.33140    1.000
    N35      N        0.60260    0.53700    0.41700    1.000
    C89      C        0.66940    0.49570    0.40700    1.000
    H71      H        0.68510    0.45200    0.43650    1.000
    N36      N        0.92720    0.60430    0.05120    1.000
    C90      C        0.93880    0.68660    0.04820    1.000
    H72      H        0.97960    0.71180    0.02440    1.000
    N37      N        0.33460    0.83450    0.88790    1.000
    N38      N        0.16580    0.91070    0.67940    1.000
    N39      N        0.11010    0.67450    0.83540    1.000
    C91      C        0.26700    0.82110    0.84430    1.000
    C92      C        0.15890    0.74240    0.81690    1.000
    C93      C        0.22310    0.75540    0.86050    1.000
    H73      H        0.23590    0.72040    0.89980    1.000
    N40      N        0.04920    0.58290    0.90200    1.000
    C94      C        0.09250    0.64720    0.90460    1.000
    H74      H        0.10910    0.67110    0.94940    1.000
    C95      C        0.18460    0.85830    0.74140    1.000
    C96      C        0.13940    0.79200    0.75690    1.000
    H75      H        0.09670    0.78100    0.72740    1.000
    C97      C        0.24970    0.87320    0.78370    1.000
    H76      H        0.28110    0.91680    0.77220    1.000
    C98      C        0.10350    0.90810    0.63670    1.000
    H77      H        0.06440    0.87110    0.64420    1.000
    C99      C        0.36440    0.90610    0.90840    1.000
    H78      H        0.34380    0.95610    0.89590    1.000
    C100     C        0.07720    0.62280    0.78430    1.000
    H79      H        0.08010    0.62570    0.73160    1.000
    C101     C        0.38280    0.77520    0.91550    1.000
    H80      H        0.37720    0.71960    0.90980    1.000
    C102     C        0.03930    0.56670    0.82580    1.000
    H81      H        0.01110    0.52400    0.80600    1.000
    C103     C        0.20890    0.97340    0.65090    1.000
    H82      H        0.25600    0.99070    0.66860    1.000
    N41      N        0.10260    0.96300    0.58300    1.000
    C104     C        0.16940    0.00430    0.59300    1.000
    H83      H        0.18510    0.04800    0.56350    1.000
    N42      N        0.42720    0.89570    0.94880    1.000
    C105     C        0.43880    0.81340    0.95180    1.000
    H84      H        0.47960    0.78820    0.97560    1.000
    N43      N        0.16540    0.16550    0.38790    1.000
    N44      N        0.33420    0.08930    0.17940    1.000
    N45      N        0.38990    0.32550    0.33540    1.000
    C106     C        0.23300    0.17890    0.34430    1.000
    C107     C        0.34110    0.25760    0.31690    1.000
    C108     C        0.27690    0.24460    0.36050    1.000
    H85      H        0.26410    0.27960    0.39980    1.000
    N46      N        0.45080    0.41710    0.40200    1.000
    C109     C        0.40750    0.35280    0.40460    1.000
    H86      H        0.39090    0.32890    0.44940    1.000
    C110     C        0.31540    0.14170    0.24140    1.000
    C111     C        0.36060    0.20800    0.25690    1.000
    H87      H        0.40330    0.21900    0.22740    1.000
    C112     C        0.25030    0.12680    0.28370    1.000
    H88      H        0.21890    0.08320    0.27220    1.000
    C113     C        0.39650    0.09190    0.13670    1.000
    H89      H        0.43560    0.12890    0.14420    1.000
    C114     C        0.13560    0.09390    0.40840    1.000
    H90      H        0.15620    0.04390    0.39590    1.000
    C115     C        0.42280    0.37720    0.28430    1.000
    H91      H        0.41990    0.37430    0.23160    1.000
    C116     C        0.11720    0.22480    0.41550    1.000
    H92      H        0.12280    0.28040    0.40980    1.000
    C117     C        0.46070    0.43330    0.32580    1.000
    H93      H        0.48890    0.47600    0.30600    1.000
    C118     C        0.29110    0.02660    0.15090    1.000
    H94      H        0.24400    0.00930    0.16860    1.000
    N47      N        0.39740    0.03700    0.08300    1.000
    C119     C        0.33060    0.99570    0.09300    1.000
    H95      H        0.31490    0.95200    0.06350    1.000
    N48      N        0.07280    0.10430    0.44880    1.000
    C120     C        0.06120    0.18660    0.45180    1.000
    H96      H        0.02040    0.21180    0.47560    1.000
    Cd1      Cd       0.00000    0.00000    0.50000    1.000
    Cd2      Cd       0.50000    0.00000    0.00000    1.000
    Cd3      Cd       0.00000    0.50000    0.00000    1.000
    Cd4      Cd       0.50000    0.50000    0.50000    1.000
