# CIF file generated by openbabel 3.1.0, see https://openbabel.org
data_I
_chemical_name_common 'image0'
_cell_length_a 6.5017
_cell_length_b 10.155
_cell_length_c 16.3582
_cell_angle_alpha 87.041
_cell_angle_beta 87.177
_cell_angle_gamma 81.427
_space_group_name_H-M_alt 'P 1'
_space_group_name_Hall 'P 1'
loop_
    _symmetry_equiv_pos_as_xyz
    x,y,z
loop_
    _atom_site_label
    _atom_site_type_symbol
    _atom_site_fract_x
    _atom_site_fract_y
    _atom_site_fract_z
    _atom_site_occupancy
    Co1      Co       0.86578    0.50211    0.26905    1.000
    Co2      Co       0.02927    0.84552    0.99664    1.000
    O1       O        0.20220    0.00351    0.96482    1.000
    H1       H        0.29510    0.00600    0.90490    1.000
    O2       O        0.15720    0.58969    0.27394    1.000
    O3       O        0.85220    0.71101    0.25593    1.000
    O4       O        0.73830    0.20621    0.27031    1.000
    O5       O        0.00580    0.31412    0.28765    1.000
    O6       O        0.41370    0.13503    0.09857    1.000
    O7       O        0.07280    0.14191    0.12089    1.000
    O8       O        0.47010    0.84145    0.08791    1.000
    O9       O        0.13970    0.81151    0.11239    1.000
    N1       N        0.77380    0.52990    0.39350    1.000
    N2       N        0.68890    0.62920    0.50948    1.000
    C1       C        0.70810    0.64450    0.42743    1.000
    H2       H        0.67870    0.72570    0.39830    1.000
    C2       C        0.79430    0.43640    0.45792    1.000
    H3       H        0.83660    0.34540    0.45290    1.000
    C3       C        0.74360    0.49690    0.52962    1.000
    H4       H        0.74570    0.45650    0.58200    1.000
    C4       C        0.62520    0.73160    0.57008    1.000
    H5       H        0.74000    0.73420    0.60540    1.000
    H6       H        0.50980    0.70620    0.60410    1.000
    C5       C        0.56080    0.86940    0.53231    1.000
    C6       C        0.70600    0.94290    0.49483    1.000
    H7       H        0.84540    0.90530    0.49110    1.000
    C7       C        0.35330    0.92870    0.53702    1.000
    H8       H        0.25330    0.88150    0.56190    1.000
    C8       C        0.14070    0.82750    0.27997    1.000
    H9       H        0.18030    0.82140    0.33720    1.000
    C9       C        0.98350    0.95580    0.26999    1.000
    H10      H        0.93340    0.96350    0.21480    1.000
    H11      H        0.86510    0.95070    0.30790    1.000
    C10      C        0.08150    0.07950    0.28618    1.000
    H12      H        0.11970    0.06960    0.34360    1.000
    C11      C        0.28500    0.08850    0.23590    1.000
    H13      H        0.34970    0.15930    0.25830    1.000
    C12      C        0.43590    0.95780    0.24743    1.000
    H14      H        0.55960    0.96270    0.21240    1.000
    H15      H        0.47810    0.94860    0.30370    1.000
    C13      C        0.34250    0.83350    0.22760    1.000
    H16      H        0.44210    0.75530    0.24370    1.000
    C14      C        0.04290    0.70340    0.26698    1.000
    C15      C        0.31240    0.82800    0.13572    1.000
    C16      C        0.92550    0.20830    0.27927    1.000
    C17      C        0.25350    0.12530    0.14495    1.000
    Co3      Co       0.13422    0.49789    0.73095    1.000
    Co4      Co       0.97073    0.15448    0.00336    1.000
    O10      O        0.79780    0.99649    0.03518    1.000
    H17      H        0.70490    0.99400    0.09510    1.000
    O11      O        0.84280    0.41031    0.72606    1.000
    O12      O        0.14780    0.28899    0.74407    1.000
    O13      O        0.26170    0.79379    0.72969    1.000
    O14      O        0.99420    0.68588    0.71235    1.000
    O15      O        0.58630    0.86497    0.90143    1.000
    O16      O        0.92720    0.85809    0.87911    1.000
    O17      O        0.52990    0.15855    0.91209    1.000
    O18      O        0.86030    0.18849    0.88761    1.000
    N3       N        0.22620    0.47010    0.60650    1.000
    N4       N        0.31110    0.37080    0.49052    1.000
    C18      C        0.29190    0.35550    0.57257    1.000
    H18      H        0.32130    0.27430    0.60170    1.000
    C19      C        0.20570    0.56360    0.54208    1.000
    H19      H        0.16340    0.65460    0.54710    1.000
    C20      C        0.25640    0.50310    0.47038    1.000
    H20      H        0.25430    0.54350    0.41800    1.000
    C21      C        0.37480    0.26840    0.42992    1.000
    H21      H        0.26000    0.26580    0.39460    1.000
    H22      H        0.49020    0.29380    0.39590    1.000
    C22      C        0.43920    0.13060    0.46769    1.000
    C23      C        0.29400    0.05710    0.50517    1.000
    H23      H        0.15460    0.09470    0.50890    1.000
    C24      C        0.64670    0.07130    0.46298    1.000
    H24      H        0.74670    0.11850    0.43810    1.000
    C25      C        0.85930    0.17250    0.72003    1.000
    H25      H        0.81970    0.17860    0.66280    1.000
    C26      C        0.01650    0.04420    0.73001    1.000
    H26      H        0.06660    0.03650    0.78520    1.000
    H27      H        0.13490    0.04930    0.69210    1.000
    C27      C        0.91850    0.92050    0.71382    1.000
    H28      H        0.88030    0.93040    0.65640    1.000
    C28      C        0.71500    0.91150    0.76410    1.000
    H29      H        0.65030    0.84070    0.74170    1.000
    C29      C        0.56410    0.04220    0.75257    1.000
    H30      H        0.44040    0.03730    0.78760    1.000
    H31      H        0.52190    0.05140    0.69630    1.000
    C30      C        0.65750    0.16650    0.77240    1.000
    H32      H        0.55790    0.24470    0.75630    1.000
    C31      C        0.95710    0.29660    0.73302    1.000
    C32      C        0.68760    0.17200    0.86428    1.000
    C33      C        0.07450    0.79170    0.72073    1.000
    C34      C        0.74650    0.87470    0.85505    1.000
    Co5      Co       0.50000    0.00000    0.00000    1.000
