# CIF file generated by openbabel 3.1.0, see https://openbabel.org
data_I
_chemical_name_common 'image0'
_cell_length_a 16.2825
_cell_length_b 33.8405
_cell_length_c 16.9649
_cell_angle_alpha 90
_cell_angle_beta 90
_cell_angle_gamma 90
_space_group_name_H-M_alt 'P 1'
_space_group_name_Hall 'P 1'
loop_
    _symmetry_equiv_pos_as_xyz
    x,y,z
loop_
    _atom_site_label
    _atom_site_type_symbol
    _atom_site_fract_x
    _atom_site_fract_y
    _atom_site_fract_z
    _atom_site_occupancy
    Eu1      Eu       0.48219    0.55375    0.44508    1.000
    Zn1      Zn       0.73881    0.49087    0.71146    1.000
    Zn2      Zn       0.56340    0.66551    0.17231    1.000
    Zn3      Zn       0.26818    0.65984    0.93129    1.000
    O1       O        0.56540    0.51485    0.53250    1.000
    O2       O        0.63950    0.48009    0.61400    1.000
    O3       O        0.59770    0.58822    0.45350    1.000
    O4       O        0.67720    0.63929    0.48340    1.000
    O5       O        0.46300    0.58707    0.33120    1.000
    O6       O        0.48500    0.64148    0.26210    1.000
    O7       O        0.55970    0.51710    0.35800    1.000
    O8       O        0.67140    0.49487    0.29850    1.000
    O9       O        0.61970    0.70824    0.95260    1.000
    O10      O        0.63220    0.68805    0.07720    1.000
    O11      O        0.48510    0.70894    0.84520    1.000
    O12      O        0.36640    0.67651    0.84830    1.000
    O13      O        0.63050    0.70762    0.75580    1.000
    O14      O        0.68600    0.66363    0.67380    1.000
    N1       N        0.74770    0.53903    0.64390    1.000
    N2       N        0.76350    0.59862    0.58990    1.000
    N3       N        0.62200    0.61440    0.19540    1.000
    N4       N        0.69300    0.55866    0.20920    1.000
    N5       N        0.47180    0.67273    0.09410    1.000
    N6       N        0.37030    0.66720    0.00650    1.000
    N7       N        0.72740    0.71701    0.56640    1.000
    N8       N        0.64930    0.48249    0.79520    1.000
    N9       N        0.34690    0.42400    0.07540    1.000
    C1       C        0.62790    0.51216    0.57670    1.000
    C2       C        0.68720    0.54368    0.58700    1.000
    C3       C        0.69830    0.58085    0.55400    1.000
    C4       C        0.65340    0.60439    0.49320    1.000
    C5       C        0.79100    0.57274    0.64330    1.000
    C6       C        0.86340    0.58080    0.69600    1.000
    H1       H        0.91270    0.58160    0.66500    1.000
    H2       H        0.86780    0.56020    0.73470    1.000
    H3       H        0.85600    0.60570    0.72200    1.000
    C7       C        0.50470    0.60730    0.28380    1.000
    C8       C        0.58210    0.59148    0.25000    1.000
    C9       C        0.62620    0.55684    0.25970    1.000
    C10      C        0.61790    0.52102    0.30880    1.000
    C11      C        0.68870    0.59370    0.17320    1.000
    C12      C        0.75130    0.60910    0.11690    1.000
    H4       H        0.79880    0.61780    0.14560    1.000
    H5       H        0.72860    0.63080    0.08800    1.000
    H6       H        0.76690    0.58850    0.08100    1.000
    C13      C        0.58920    0.69510    0.01650    1.000
    C14      C        0.50100    0.68550    0.02140    1.000
    C15      C        0.43770    0.68200    0.96800    1.000
    C16      C        0.42970    0.68982    0.88150    1.000
    C17      C        0.39200    0.66288    0.08160    1.000
    C18      C        0.33450    0.65160    0.14640    1.000
    H7       H        0.32270    0.67440    0.17820    1.000
    H8       H        0.35940    0.63160    0.17850    1.000
    H9       H        0.28440    0.64160    0.12420    1.000
    C19      C        0.66830    0.69888    0.69280    1.000
    C20      C        0.69270    0.72939    0.63600    1.000
    C21      C        0.57480    0.49960    0.79600    1.000
    H10      H        0.56330    0.51900    0.75880    1.000
    C22      C        0.51390    0.48950    0.85020    1.000
    H11      H        0.46300    0.50190    0.84810    1.000
    C23      C        0.52940    0.46100    0.90730    1.000
    C24      C        0.60830    0.44490    0.90770    1.000
    H12      H        0.62250    0.42640    0.94580    1.000
    C25      C        0.66500    0.45610    0.85220    1.000
    H13      H        0.71710    0.44490    0.85430    1.000
    C26      C        0.33500    0.45520    0.02890    1.000
    H14      H        0.28540    0.46860    0.03300    1.000
    C27      C        0.39250    0.46900    0.97410    1.000
    H15      H        0.38160    0.49140    0.94400    1.000
    C28      C        0.46660    0.44870    0.96540    1.000
    C29      C        0.47850    0.41650    0.01490    1.000
    H16      H        0.52800    0.40280    0.01280    1.000
    C30      C        0.41880    0.40450    0.06680    1.000
    H17      H        0.42820    0.38200    0.09720    1.000
    H18      H        0.78230    0.77650    0.42460    1.000
    H19      H        0.74790    0.73380    0.41090    1.000
    H20      H        0.83610    0.73970    0.44600    1.000
    Eu2      Eu       0.01781    0.44625    0.94508    1.000
    Zn4      Zn       0.76119    0.50913    0.21146    1.000
    Zn5      Zn       0.93660    0.33449    0.67231    1.000
    Zn6      Zn       0.23182    0.34016    0.43129    1.000
    O15      O        0.93460    0.48515    0.03250    1.000
    O16      O        0.86050    0.51991    0.11400    1.000
    O17      O        0.90230    0.41178    0.95350    1.000
    O18      O        0.82280    0.36071    0.98340    1.000
    O19      O        0.03700    0.41293    0.83120    1.000
    O20      O        0.01500    0.35852    0.76210    1.000
    O21      O        0.94030    0.48290    0.85800    1.000
    O22      O        0.82860    0.50513    0.79850    1.000
    O23      O        0.88030    0.29176    0.45260    1.000
    O24      O        0.86780    0.31195    0.57720    1.000
    O25      O        0.01490    0.29106    0.34520    1.000
    O26      O        0.13360    0.32349    0.34830    1.000
    O27      O        0.86950    0.29238    0.25580    1.000
    O28      O        0.81400    0.33637    0.17380    1.000
    N10      N        0.75230    0.46097    0.14390    1.000
    N11      N        0.73650    0.40138    0.08990    1.000
    N12      N        0.87800    0.38560    0.69540    1.000
    N13      N        0.80700    0.44134    0.70920    1.000
    N14      N        0.02820    0.32727    0.59410    1.000
    N15      N        0.12970    0.33280    0.50650    1.000
    N16      N        0.77260    0.28299    0.06640    1.000
    N17      N        0.85070    0.51751    0.29520    1.000
    N18      N        0.15310    0.57600    0.57540    1.000
    C31      C        0.87210    0.48784    0.07670    1.000
    C32      C        0.81280    0.45632    0.08700    1.000
    C33      C        0.80170    0.41915    0.05400    1.000
    C34      C        0.84660    0.39561    0.99320    1.000
    C35      C        0.70900    0.42726    0.14330    1.000
    C36      C        0.63660    0.41920    0.19600    1.000
    H21      H        0.58730    0.41840    0.16500    1.000
    H22      H        0.63220    0.43980    0.23470    1.000
    H23      H        0.64400    0.39430    0.22200    1.000
    C37      C        0.99530    0.39270    0.78380    1.000
    C38      C        0.91790    0.40852    0.75000    1.000
    C39      C        0.87380    0.44316    0.75970    1.000
    C40      C        0.88210    0.47898    0.80880    1.000
    C41      C        0.81130    0.40630    0.67320    1.000
    C42      C        0.74870    0.39090    0.61690    1.000
    H24      H        0.70120    0.38220    0.64560    1.000
    H25      H        0.77140    0.36920    0.58800    1.000
    H26      H        0.73310    0.41150    0.58100    1.000
    C43      C        0.91080    0.30490    0.51650    1.000
    C44      C        0.99900    0.31450    0.52140    1.000
    C45      C        0.06230    0.31800    0.46800    1.000
    C46      C        0.07030    0.31018    0.38150    1.000
    C47      C        0.10800    0.33712    0.58160    1.000
    C48      C        0.16550    0.34840    0.64640    1.000
    H27      H        0.17730    0.32560    0.67820    1.000
    H28      H        0.14060    0.36840    0.67850    1.000
    H29      H        0.21560    0.35840    0.62420    1.000
    C49      C        0.83170    0.30112    0.19280    1.000
    C50      C        0.80730    0.27061    0.13600    1.000
    C51      C        0.92520    0.50040    0.29600    1.000
    H30      H        0.93670    0.48100    0.25880    1.000
    C52      C        0.98610    0.51050    0.35020    1.000
    H31      H        0.03700    0.49810    0.34810    1.000
    C53      C        0.97060    0.53900    0.40730    1.000
    C54      C        0.89170    0.55510    0.40770    1.000
    H32      H        0.87750    0.57360    0.44580    1.000
    C55      C        0.83500    0.54390    0.35220    1.000
    H33      H        0.78290    0.55510    0.35430    1.000
    C56      C        0.16500    0.54480    0.52890    1.000
    H34      H        0.21460    0.53140    0.53300    1.000
    C57      C        0.10750    0.53100    0.47410    1.000
    H35      H        0.11840    0.50860    0.44400    1.000
    C58      C        0.03340    0.55130    0.46540    1.000
    C59      C        0.02150    0.58350    0.51490    1.000
    H36      H        0.97200    0.59720    0.51280    1.000
    C60      C        0.08120    0.59550    0.56680    1.000
    H37      H        0.07180    0.61800    0.59720    1.000
    H38      H        0.71770    0.22350    0.92460    1.000
    H39      H        0.75210    0.26620    0.91090    1.000
    H40      H        0.66390    0.26030    0.94600    1.000
    Eu3      Eu       0.51781    0.05375    0.55492    1.000
    Zn7      Zn       0.26119    0.99087    0.28854    1.000
    Zn8      Zn       0.43660    0.16551    0.82769    1.000
    Zn9      Zn       0.73182    0.15984    0.06871    1.000
    O29      O        0.43460    0.01485    0.46750    1.000
    O30      O        0.36050    0.98009    0.38600    1.000
    O31      O        0.40230    0.08822    0.54650    1.000
    O32      O        0.32280    0.13929    0.51660    1.000
    O33      O        0.53700    0.08707    0.66880    1.000
    O34      O        0.51500    0.14148    0.73790    1.000
    O35      O        0.44030    0.01710    0.64200    1.000
    O36      O        0.32860    0.99487    0.70150    1.000
    O37      O        0.38030    0.20824    0.04740    1.000
    O38      O        0.36780    0.18805    0.92280    1.000
    O39      O        0.51490    0.20894    0.15480    1.000
    O40      O        0.63360    0.17651    0.15170    1.000
    O41      O        0.36950    0.20762    0.24420    1.000
    O42      O        0.31400    0.16363    0.32620    1.000
    N19      N        0.25230    0.03903    0.35610    1.000
    N20      N        0.23650    0.09862    0.41010    1.000
    N21      N        0.37800    0.11440    0.80460    1.000
    N22      N        0.30700    0.05866    0.79080    1.000
    N23      N        0.52820    0.17273    0.90590    1.000
    N24      N        0.62970    0.16720    0.99350    1.000
    N25      N        0.27260    0.21701    0.43360    1.000
    N26      N        0.35070    0.98249    0.20480    1.000
    N27      N        0.65310    0.92400    0.92460    1.000
    C61      C        0.37210    0.01216    0.42330    1.000
    C62      C        0.31280    0.04368    0.41300    1.000
    C63      C        0.30170    0.08085    0.44600    1.000
    C64      C        0.34660    0.10439    0.50680    1.000
    C65      C        0.20900    0.07274    0.35670    1.000
    C66      C        0.13660    0.08080    0.30400    1.000
    H41      H        0.08730    0.08160    0.33500    1.000
    H42      H        0.13220    0.06020    0.26530    1.000
    H43      H        0.14400    0.10570    0.27800    1.000
    C67      C        0.49530    0.10730    0.71620    1.000
    C68      C        0.41790    0.09148    0.75000    1.000
    C69      C        0.37380    0.05684    0.74030    1.000
    C70      C        0.38210    0.02102    0.69120    1.000
    C71      C        0.31130    0.09370    0.82680    1.000
    C72      C        0.24870    0.10910    0.88310    1.000
    H44      H        0.20120    0.11780    0.85440    1.000
    H45      H        0.27140    0.13080    0.91200    1.000
    H46      H        0.23310    0.08850    0.91900    1.000
    C73      C        0.41080    0.19510    0.98350    1.000
    C74      C        0.49900    0.18550    0.97860    1.000
    C75      C        0.56230    0.18200    0.03200    1.000
    C76      C        0.57030    0.18982    0.11850    1.000
    C77      C        0.60800    0.16288    0.91840    1.000
    C78      C        0.66550    0.15160    0.85360    1.000
    H47      H        0.67730    0.17440    0.82180    1.000
    H48      H        0.64060    0.13160    0.82150    1.000
    H49      H        0.71560    0.14160    0.87580    1.000
    C79      C        0.33170    0.19888    0.30720    1.000
    C80      C        0.30730    0.22939    0.36400    1.000
    C81      C        0.42520    0.99960    0.20400    1.000
    H50      H        0.43670    0.01900    0.24120    1.000
    C82      C        0.48610    0.98950    0.14980    1.000
    H51      H        0.53700    0.00190    0.15190    1.000
    C83      C        0.47060    0.96100    0.09270    1.000
    C84      C        0.39170    0.94490    0.09230    1.000
    H52      H        0.37750    0.92640    0.05420    1.000
    C85      C        0.33500    0.95610    0.14780    1.000
    H53      H        0.28290    0.94490    0.14570    1.000
    C86      C        0.66500    0.95520    0.97110    1.000
    H54      H        0.71460    0.96860    0.96700    1.000
    C87      C        0.60750    0.96900    0.02590    1.000
    H55      H        0.61840    0.99140    0.05600    1.000
    C88      C        0.53340    0.94870    0.03460    1.000
    C89      C        0.52150    0.91650    0.98510    1.000
    H56      H        0.47200    0.90280    0.98720    1.000
    C90      C        0.58120    0.90450    0.93320    1.000
    H57      H        0.57180    0.88200    0.90280    1.000
    H58      H        0.21770    0.27650    0.57540    1.000
    H59      H        0.25210    0.23380    0.58910    1.000
    H60      H        0.16390    0.23970    0.55400    1.000
    Eu4      Eu       0.98219    0.94625    0.05492    1.000
    Zn10     Zn       0.23881    0.00913    0.78854    1.000
    Zn11     Zn       0.06340    0.83449    0.32769    1.000
    Zn12     Zn       0.76818    0.84016    0.56871    1.000
    O43      O        0.06540    0.98515    0.96750    1.000
    O44      O        0.13950    0.01991    0.88600    1.000
    O45      O        0.09770    0.91178    0.04650    1.000
    O46      O        0.17720    0.86071    0.01660    1.000
    O47      O        0.96300    0.91293    0.16880    1.000
    O48      O        0.98500    0.85852    0.23790    1.000
    O49      O        0.05970    0.98290    0.14200    1.000
    O50      O        0.17140    0.00513    0.20150    1.000
    O51      O        0.11970    0.79176    0.54740    1.000
    O52      O        0.13220    0.81195    0.42280    1.000
    O53      O        0.98510    0.79106    0.65480    1.000
    O54      O        0.86640    0.82349    0.65170    1.000
    O55      O        0.13050    0.79238    0.74420    1.000
    O56      O        0.18600    0.83637    0.82620    1.000
    N28      N        0.24770    0.96097    0.85610    1.000
    N29      N        0.26350    0.90138    0.91010    1.000
    N30      N        0.12200    0.88560    0.30460    1.000
    N31      N        0.19300    0.94134    0.29080    1.000
    N32      N        0.97180    0.82727    0.40590    1.000
    N33      N        0.87030    0.83280    0.49350    1.000
    N34      N        0.22740    0.78299    0.93360    1.000
    N35      N        0.14930    0.01751    0.70480    1.000
    N36      N        0.84690    0.07600    0.42460    1.000
    C91      C        0.12790    0.98784    0.92330    1.000
    C92      C        0.18720    0.95632    0.91300    1.000
    C93      C        0.19830    0.91915    0.94600    1.000
    C94      C        0.15340    0.89561    0.00680    1.000
    C95      C        0.29100    0.92726    0.85670    1.000
    C96      C        0.36340    0.91920    0.80400    1.000
    H61      H        0.41270    0.91840    0.83500    1.000
    H62      H        0.36780    0.93980    0.76530    1.000
    H63      H        0.35600    0.89430    0.77800    1.000
    C97      C        0.00470    0.89270    0.21620    1.000
    C98      C        0.08210    0.90852    0.25000    1.000
    C99      C        0.12620    0.94316    0.24030    1.000
    C100     C        0.11790    0.97898    0.19120    1.000
    C101     C        0.18870    0.90630    0.32680    1.000
    C102     C        0.25130    0.89090    0.38310    1.000
    H64      H        0.29880    0.88220    0.35440    1.000
    H65      H        0.22860    0.86920    0.41200    1.000
    H66      H        0.26690    0.91150    0.41900    1.000
    C103     C        0.08920    0.80490    0.48350    1.000
    C104     C        0.00100    0.81450    0.47860    1.000
    C105     C        0.93770    0.81800    0.53200    1.000
    C106     C        0.92970    0.81018    0.61850    1.000
    C107     C        0.89200    0.83712    0.41840    1.000
    C108     C        0.83450    0.84840    0.35360    1.000
    H67      H        0.82270    0.82560    0.32180    1.000
    H68      H        0.85940    0.86840    0.32150    1.000
    H69      H        0.78440    0.85840    0.37580    1.000
    C109     C        0.16830    0.80112    0.80720    1.000
    C110     C        0.19270    0.77061    0.86400    1.000
    C111     C        0.07480    0.00040    0.70400    1.000
    H70      H        0.06330    0.98100    0.74120    1.000
    C112     C        0.01390    0.01050    0.64980    1.000
    H71      H        0.96300    0.99810    0.65190    1.000
    C113     C        0.02940    0.03900    0.59270    1.000
    C114     C        0.10830    0.05510    0.59230    1.000
    H72      H        0.12250    0.07360    0.55420    1.000
    C115     C        0.16500    0.04390    0.64780    1.000
    H73      H        0.21710    0.05510    0.64570    1.000
    C116     C        0.83500    0.04480    0.47110    1.000
    H74      H        0.78540    0.03140    0.46700    1.000
    C117     C        0.89250    0.03100    0.52590    1.000
    H75      H        0.88160    0.00860    0.55600    1.000
    C118     C        0.96660    0.05130    0.53460    1.000
    C119     C        0.97850    0.08350    0.48510    1.000
    H76      H        0.02800    0.09720    0.48720    1.000
    C120     C        0.91880    0.09550    0.43320    1.000
    H77      H        0.92820    0.11800    0.40280    1.000
    H78      H        0.28230    0.72350    0.07540    1.000
    H79      H        0.24790    0.76620    0.08910    1.000
    H80      H        0.33610    0.76030    0.05400    1.000
    Eu5      Eu       0.51781    0.44625    0.55492    1.000
    Zn13     Zn       0.26119    0.50913    0.28854    1.000
    Zn14     Zn       0.43660    0.33449    0.82769    1.000
    Zn15     Zn       0.73182    0.34016    0.06871    1.000
    O57      O        0.43460    0.48515    0.46750    1.000
    O58      O        0.36050    0.51991    0.38600    1.000
    O59      O        0.40230    0.41178    0.54650    1.000
    O60      O        0.32280    0.36071    0.51660    1.000
    O61      O        0.53700    0.41293    0.66880    1.000
    O62      O        0.51500    0.35852    0.73790    1.000
    O63      O        0.44030    0.48290    0.64200    1.000
    O64      O        0.32860    0.50513    0.70150    1.000
    O65      O        0.38030    0.29176    0.04740    1.000
    O66      O        0.36780    0.31195    0.92280    1.000
    O67      O        0.51490    0.29106    0.15480    1.000
    O68      O        0.63360    0.32349    0.15170    1.000
    O69      O        0.36950    0.29238    0.24420    1.000
    O70      O        0.31400    0.33637    0.32620    1.000
    N37      N        0.25230    0.46097    0.35610    1.000
    N38      N        0.23650    0.40138    0.41010    1.000
    N39      N        0.37800    0.38560    0.80460    1.000
    N40      N        0.30700    0.44134    0.79080    1.000
    N41      N        0.52820    0.32727    0.90590    1.000
    N42      N        0.62970    0.33280    0.99350    1.000
    N43      N        0.27260    0.28299    0.43360    1.000
    N44      N        0.35070    0.51751    0.20480    1.000
    N45      N        0.65310    0.57600    0.92460    1.000
    C121     C        0.37210    0.48784    0.42330    1.000
    C122     C        0.31280    0.45632    0.41300    1.000
    C123     C        0.30170    0.41915    0.44600    1.000
    C124     C        0.34660    0.39561    0.50680    1.000
    C125     C        0.20900    0.42726    0.35670    1.000
    C126     C        0.13660    0.41920    0.30400    1.000
    H81      H        0.08730    0.41840    0.33500    1.000
    H82      H        0.13220    0.43980    0.26530    1.000
    H83      H        0.14400    0.39430    0.27800    1.000
    C127     C        0.49530    0.39270    0.71620    1.000
    C128     C        0.41790    0.40852    0.75000    1.000
    C129     C        0.37380    0.44316    0.74030    1.000
    C130     C        0.38210    0.47898    0.69120    1.000
    C131     C        0.31130    0.40630    0.82680    1.000
    C132     C        0.24870    0.39090    0.88310    1.000
    H84      H        0.20120    0.38220    0.85440    1.000
    H85      H        0.27140    0.36920    0.91200    1.000
    H86      H        0.23310    0.41150    0.91900    1.000
    C133     C        0.41080    0.30490    0.98350    1.000
    C134     C        0.49900    0.31450    0.97860    1.000
    C135     C        0.56230    0.31800    0.03200    1.000
    C136     C        0.57030    0.31018    0.11850    1.000
    C137     C        0.60800    0.33712    0.91840    1.000
    C138     C        0.66550    0.34840    0.85360    1.000
    H87      H        0.67730    0.32560    0.82180    1.000
    H88      H        0.64060    0.36840    0.82150    1.000
    H89      H        0.71560    0.35840    0.87580    1.000
    C139     C        0.33170    0.30112    0.30720    1.000
    C140     C        0.30730    0.27061    0.36400    1.000
    C141     C        0.42520    0.50040    0.20400    1.000
    H90      H        0.43670    0.48100    0.24120    1.000
    C142     C        0.48610    0.51050    0.14980    1.000
    H91      H        0.53700    0.49810    0.15190    1.000
    C143     C        0.47060    0.53900    0.09270    1.000
    C144     C        0.39170    0.55510    0.09230    1.000
    H92      H        0.37750    0.57360    0.05420    1.000
    C145     C        0.33500    0.54390    0.14780    1.000
    H93      H        0.28290    0.55510    0.14570    1.000
    C146     C        0.66500    0.54480    0.97110    1.000
    H94      H        0.71460    0.53140    0.96700    1.000
    C147     C        0.60750    0.53100    0.02590    1.000
    H95      H        0.61840    0.50860    0.05600    1.000
    C148     C        0.53340    0.55130    0.03460    1.000
    C149     C        0.52150    0.58350    0.98510    1.000
    H96      H        0.47200    0.59720    0.98720    1.000
    C150     C        0.58120    0.59550    0.93320    1.000
    H97      H        0.57180    0.61800    0.90280    1.000
    H98      H        0.21770    0.22350    0.57540    1.000
    H99      H        0.25210    0.26620    0.58910    1.000
    H100     H        0.16390    0.26030    0.55400    1.000
    Eu6      Eu       0.98219    0.55375    0.05492    1.000
    Zn16     Zn       0.23881    0.49087    0.78854    1.000
    Zn17     Zn       0.06340    0.66551    0.32769    1.000
    Zn18     Zn       0.76818    0.65984    0.56871    1.000
    O71      O        0.06540    0.51485    0.96750    1.000
    O72      O        0.13950    0.48009    0.88600    1.000
    O73      O        0.09770    0.58822    0.04650    1.000
    O74      O        0.17720    0.63929    0.01660    1.000
    O75      O        0.96300    0.58707    0.16880    1.000
    O76      O        0.98500    0.64148    0.23790    1.000
    O77      O        0.05970    0.51710    0.14200    1.000
    O78      O        0.17140    0.49487    0.20150    1.000
    O79      O        0.11970    0.70824    0.54740    1.000
    O80      O        0.13220    0.68805    0.42280    1.000
    O81      O        0.98510    0.70894    0.65480    1.000
    O82      O        0.86640    0.67651    0.65170    1.000
    O83      O        0.13050    0.70762    0.74420    1.000
    O84      O        0.18600    0.66363    0.82620    1.000
    N46      N        0.24770    0.53903    0.85610    1.000
    N47      N        0.26350    0.59862    0.91010    1.000
    N48      N        0.12200    0.61440    0.30460    1.000
    N49      N        0.19300    0.55866    0.29080    1.000
    N50      N        0.97180    0.67273    0.40590    1.000
    N51      N        0.87030    0.66720    0.49350    1.000
    N52      N        0.22740    0.71701    0.93360    1.000
    N53      N        0.14930    0.48249    0.70480    1.000
    N54      N        0.84690    0.42400    0.42460    1.000
    C151     C        0.12790    0.51216    0.92330    1.000
    C152     C        0.18720    0.54368    0.91300    1.000
    C153     C        0.19830    0.58085    0.94600    1.000
    C154     C        0.15340    0.60439    0.00680    1.000
    C155     C        0.29100    0.57274    0.85670    1.000
    C156     C        0.36340    0.58080    0.80400    1.000
    H101     H        0.41270    0.58160    0.83500    1.000
    H102     H        0.36780    0.56020    0.76530    1.000
    H103     H        0.35600    0.60570    0.77800    1.000
    C157     C        0.00470    0.60730    0.21620    1.000
    C158     C        0.08210    0.59148    0.25000    1.000
    C159     C        0.12620    0.55684    0.24030    1.000
    C160     C        0.11790    0.52102    0.19120    1.000
    C161     C        0.18870    0.59370    0.32680    1.000
    C162     C        0.25130    0.60910    0.38310    1.000
    H104     H        0.29880    0.61780    0.35440    1.000
    H105     H        0.22860    0.63080    0.41200    1.000
    H106     H        0.26690    0.58850    0.41900    1.000
    C163     C        0.08920    0.69510    0.48350    1.000
    C164     C        0.00100    0.68550    0.47860    1.000
    C165     C        0.93770    0.68200    0.53200    1.000
    C166     C        0.92970    0.68982    0.61850    1.000
    C167     C        0.89200    0.66288    0.41840    1.000
    C168     C        0.83450    0.65160    0.35360    1.000
    H107     H        0.82270    0.67440    0.32180    1.000
    H108     H        0.85940    0.63160    0.32150    1.000
    H109     H        0.78440    0.64160    0.37580    1.000
    C169     C        0.16830    0.69888    0.80720    1.000
    C170     C        0.19270    0.72939    0.86400    1.000
    C171     C        0.07480    0.49960    0.70400    1.000
    H110     H        0.06330    0.51900    0.74120    1.000
    C172     C        0.01390    0.48950    0.64980    1.000
    H111     H        0.96300    0.50190    0.65190    1.000
    C173     C        0.02940    0.46100    0.59270    1.000
    C174     C        0.10830    0.44490    0.59230    1.000
    H112     H        0.12250    0.42640    0.55420    1.000
    C175     C        0.16500    0.45610    0.64780    1.000
    H113     H        0.21710    0.44490    0.64570    1.000
    C176     C        0.83500    0.45520    0.47110    1.000
    H114     H        0.78540    0.46860    0.46700    1.000
    C177     C        0.89250    0.46900    0.52590    1.000
    H115     H        0.88160    0.49140    0.55600    1.000
    C178     C        0.96660    0.44870    0.53460    1.000
    C179     C        0.97850    0.41650    0.48510    1.000
    H116     H        0.02800    0.40280    0.48720    1.000
    C180     C        0.91880    0.40450    0.43320    1.000
    H117     H        0.92820    0.38200    0.40280    1.000
    H118     H        0.28230    0.77650    0.07540    1.000
    H119     H        0.24790    0.73380    0.08910    1.000
    H120     H        0.33610    0.73970    0.05400    1.000
    Eu7      Eu       0.48219    0.94625    0.44508    1.000
    Zn19     Zn       0.73881    0.00913    0.71146    1.000
    Zn20     Zn       0.56340    0.83449    0.17231    1.000
    Zn21     Zn       0.26818    0.84016    0.93129    1.000
    O85      O        0.56540    0.98515    0.53250    1.000
    O86      O        0.63950    0.01991    0.61400    1.000
    O87      O        0.59770    0.91178    0.45350    1.000
    O88      O        0.67720    0.86071    0.48340    1.000
    O89      O        0.46300    0.91293    0.33120    1.000
    O90      O        0.48500    0.85852    0.26210    1.000
    O91      O        0.55970    0.98290    0.35800    1.000
    O92      O        0.67140    0.00513    0.29850    1.000
    O93      O        0.61970    0.79176    0.95260    1.000
    O94      O        0.63220    0.81195    0.07720    1.000
    O95      O        0.48510    0.79106    0.84520    1.000
    O96      O        0.36640    0.82349    0.84830    1.000
    O97      O        0.63050    0.79238    0.75580    1.000
    O98      O        0.68600    0.83637    0.67380    1.000
    N55      N        0.74770    0.96097    0.64390    1.000
    N56      N        0.76350    0.90138    0.58990    1.000
    N57      N        0.62200    0.88560    0.19540    1.000
    N58      N        0.69300    0.94134    0.20920    1.000
    N59      N        0.47180    0.82727    0.09410    1.000
    N60      N        0.37030    0.83280    0.00650    1.000
    N61      N        0.72740    0.78299    0.56640    1.000
    N62      N        0.64930    0.01751    0.79520    1.000
    N63      N        0.34690    0.07600    0.07540    1.000
    C181     C        0.62790    0.98784    0.57670    1.000
    C182     C        0.68720    0.95632    0.58700    1.000
    C183     C        0.69830    0.91915    0.55400    1.000
    C184     C        0.65340    0.89561    0.49320    1.000
    C185     C        0.79100    0.92726    0.64330    1.000
    C186     C        0.86340    0.91920    0.69600    1.000
    H121     H        0.91270    0.91840    0.66500    1.000
    H122     H        0.86780    0.93980    0.73470    1.000
    H123     H        0.85600    0.89430    0.72200    1.000
    C187     C        0.50470    0.89270    0.28380    1.000
    C188     C        0.58210    0.90852    0.25000    1.000
    C189     C        0.62620    0.94316    0.25970    1.000
    C190     C        0.61790    0.97898    0.30880    1.000
    C191     C        0.68870    0.90630    0.17320    1.000
    C192     C        0.75130    0.89090    0.11690    1.000
    H124     H        0.79880    0.88220    0.14560    1.000
    H125     H        0.72860    0.86920    0.08800    1.000
    H126     H        0.76690    0.91150    0.08100    1.000
    C193     C        0.58920    0.80490    0.01650    1.000
    C194     C        0.50100    0.81450    0.02140    1.000
    C195     C        0.43770    0.81800    0.96800    1.000
    C196     C        0.42970    0.81018    0.88150    1.000
    C197     C        0.39200    0.83712    0.08160    1.000
    C198     C        0.33450    0.84840    0.14640    1.000
    H127     H        0.32270    0.82560    0.17820    1.000
    H128     H        0.35940    0.86840    0.17850    1.000
    H129     H        0.28440    0.85840    0.12420    1.000
    C199     C        0.66830    0.80112    0.69280    1.000
    C200     C        0.69270    0.77061    0.63600    1.000
    C201     C        0.57480    0.00040    0.79600    1.000
    H130     H        0.56330    0.98100    0.75880    1.000
    C202     C        0.51390    0.01050    0.85020    1.000
    H131     H        0.46300    0.99810    0.84810    1.000
    C203     C        0.52940    0.03900    0.90730    1.000
    C204     C        0.60830    0.05510    0.90770    1.000
    H132     H        0.62250    0.07360    0.94580    1.000
    C205     C        0.66500    0.04390    0.85220    1.000
    H133     H        0.71710    0.05510    0.85430    1.000
    C206     C        0.33500    0.04480    0.02890    1.000
    H134     H        0.28540    0.03140    0.03300    1.000
    C207     C        0.39250    0.03100    0.97410    1.000
    H135     H        0.38160    0.00860    0.94400    1.000
    C208     C        0.46660    0.05130    0.96540    1.000
    C209     C        0.47850    0.08350    0.01490    1.000
    H136     H        0.52800    0.09720    0.01280    1.000
    C210     C        0.41880    0.09550    0.06680    1.000
    H137     H        0.42820    0.11800    0.09720    1.000
    H138     H        0.78230    0.72350    0.42460    1.000
    H139     H        0.74790    0.76620    0.41090    1.000
    H140     H        0.83610    0.76030    0.44600    1.000
    Eu8      Eu       0.01781    0.05375    0.94508    1.000
    Zn22     Zn       0.76119    0.99087    0.21146    1.000
    Zn23     Zn       0.93660    0.16551    0.67231    1.000
    Zn24     Zn       0.23182    0.15984    0.43129    1.000
    O99      O        0.93460    0.01485    0.03250    1.000
    O100     O        0.86050    0.98009    0.11400    1.000
    O101     O        0.90230    0.08822    0.95350    1.000
    O102     O        0.82280    0.13929    0.98340    1.000
    O103     O        0.03700    0.08707    0.83120    1.000
    O104     O        0.01500    0.14148    0.76210    1.000
    O105     O        0.94030    0.01710    0.85800    1.000
    O106     O        0.82860    0.99487    0.79850    1.000
    O107     O        0.88030    0.20824    0.45260    1.000
    O108     O        0.86780    0.18805    0.57720    1.000
    O109     O        0.01490    0.20894    0.34520    1.000
    O110     O        0.13360    0.17651    0.34830    1.000
    O111     O        0.86950    0.20762    0.25580    1.000
    O112     O        0.81400    0.16363    0.17380    1.000
    N64      N        0.75230    0.03903    0.14390    1.000
    N65      N        0.73650    0.09862    0.08990    1.000
    N66      N        0.87800    0.11440    0.69540    1.000
    N67      N        0.80700    0.05866    0.70920    1.000
    N68      N        0.02820    0.17273    0.59410    1.000
    N69      N        0.12970    0.16720    0.50650    1.000
    N70      N        0.77260    0.21701    0.06640    1.000
    N71      N        0.85070    0.98249    0.29520    1.000
    N72      N        0.15310    0.92400    0.57540    1.000
    C211     C        0.87210    0.01216    0.07670    1.000
    C212     C        0.81280    0.04368    0.08700    1.000
    C213     C        0.80170    0.08085    0.05400    1.000
    C214     C        0.84660    0.10439    0.99320    1.000
    C215     C        0.70900    0.07274    0.14330    1.000
    C216     C        0.63660    0.08080    0.19600    1.000
    H141     H        0.58730    0.08160    0.16500    1.000
    H142     H        0.63220    0.06020    0.23470    1.000
    H143     H        0.64400    0.10570    0.22200    1.000
    C217     C        0.99530    0.10730    0.78380    1.000
    C218     C        0.91790    0.09148    0.75000    1.000
    C219     C        0.87380    0.05684    0.75970    1.000
    C220     C        0.88210    0.02102    0.80880    1.000
    C221     C        0.81130    0.09370    0.67320    1.000
    C222     C        0.74870    0.10910    0.61690    1.000
    H144     H        0.70120    0.11780    0.64560    1.000
    H145     H        0.77140    0.13080    0.58800    1.000
    H146     H        0.73310    0.08850    0.58100    1.000
    C223     C        0.91080    0.19510    0.51650    1.000
    C224     C        0.99900    0.18550    0.52140    1.000
    C225     C        0.06230    0.18200    0.46800    1.000
    C226     C        0.07030    0.18982    0.38150    1.000
    C227     C        0.10800    0.16288    0.58160    1.000
    C228     C        0.16550    0.15160    0.64640    1.000
    H147     H        0.17730    0.17440    0.67820    1.000
    H148     H        0.14060    0.13160    0.67850    1.000
    H149     H        0.21560    0.14160    0.62420    1.000
    C229     C        0.83170    0.19888    0.19280    1.000
    C230     C        0.80730    0.22939    0.13600    1.000
    C231     C        0.92520    0.99960    0.29600    1.000
    H150     H        0.93670    0.01900    0.25880    1.000
    C232     C        0.98610    0.98950    0.35020    1.000
    H151     H        0.03700    0.00190    0.34810    1.000
    C233     C        0.97060    0.96100    0.40730    1.000
    C234     C        0.89170    0.94490    0.40770    1.000
    H152     H        0.87750    0.92640    0.44580    1.000
    C235     C        0.83500    0.95610    0.35220    1.000
    H153     H        0.78290    0.94490    0.35430    1.000
    C236     C        0.16500    0.95520    0.52890    1.000
    H154     H        0.21460    0.96860    0.53300    1.000
    C237     C        0.10750    0.96900    0.47410    1.000
    H155     H        0.11840    0.99140    0.44400    1.000
    C238     C        0.03340    0.94870    0.46540    1.000
    C239     C        0.02150    0.91650    0.51490    1.000
    H156     H        0.97200    0.90280    0.51280    1.000
    C240     C        0.08120    0.90450    0.56680    1.000
    H157     H        0.07180    0.88200    0.59720    1.000
    H158     H        0.71770    0.27650    0.92460    1.000
    H159     H        0.75210    0.23380    0.91090    1.000
    H160     H        0.66390    0.23970    0.94600    1.000
    Eu9      Eu       0.59508    0.75000    0.84997    1.000
    C241     C        0.74620    0.75000    0.52570    1.000
    C242     C        0.78120    0.75000    0.44460    1.000
    Eu10     Eu       0.90492    0.25000    0.34997    1.000
    C243     C        0.75380    0.25000    0.02570    1.000
    C244     C        0.71880    0.25000    0.94460    1.000
    Eu11     Eu       0.40492    0.25000    0.15003    1.000
    C245     C        0.25380    0.25000    0.47430    1.000
    C246     C        0.21880    0.25000    0.55540    1.000
    Eu12     Eu       0.09508    0.75000    0.65003    1.000
    C247     C        0.24620    0.75000    0.97430    1.000
    C248     C        0.28120    0.75000    0.05540    1.000
