# CIF file generated by openbabel 3.1.0, see https://openbabel.org
data_I
_chemical_name_common 'SIRZUQ_clean'
_cell_length_a 11.102
_cell_length_b 15.9004
_cell_length_c 15.9004
_cell_angle_alpha 65.2444
_cell_angle_beta 76.5416
_cell_angle_gamma 103.458
_space_group_name_H-M_alt 'P 1'
_space_group_name_Hall 'P 1'
loop_
    _symmetry_equiv_pos_as_xyz
    x,y,z
loop_
    _atom_site_label
    _atom_site_type_symbol
    _atom_site_fract_x
    _atom_site_fract_y
    _atom_site_fract_z
    _atom_site_occupancy
    Cd1      Cd       0.22804    0.75697    0.63171    1.000
    Cd2      Cd       0.77196    0.24303    0.36829    1.000
    H1       H        0.71650    0.03620    0.22890    1.000
    H2       H        0.29640    0.09760    0.52040    1.000
    H3       H        0.38530    0.83280    0.27090    1.000
    H4       H        0.15310    0.14500    0.60620    1.000
    H5       H        0.06980    0.95570    0.30670    1.000
    H6       H        0.84690    0.85500    0.39380    1.000
    H7       H        0.61410    0.91440    0.19830    1.000
    H8       H        0.38590    0.08560    0.80170    1.000
    H9       H        0.61470    0.16720    0.72910    1.000
    H10      H        0.15100    0.10510    0.30250    1.000
    H11      H        0.28350    0.96380    0.77110    1.000
    H12      H        0.84900    0.89490    0.69750    1.000
    H13      H        0.74150    0.12990    0.62250    1.000
    H14      H        0.25850    0.87010    0.37750    1.000
    H15      H        0.70360    0.90240    0.47960    1.000
    H16      H        0.93020    0.04430    0.69330    1.000
    C1       C        0.43686    0.06947    0.75989    1.000
    C2       C        0.55014    0.02962    0.32000    1.000
    C3       C        0.56314    0.93053    0.24011    1.000
    C4       C        0.79362    0.94323    0.44417    1.000
    C5       C        0.35046    0.90403    0.34735    1.000
    C6       C        0.20638    0.05677    0.55583    1.000
    C7       C        0.64954    0.09597    0.65265    1.000
    C8       C        0.01245    0.97543    0.34038    1.000
    C9       C        0.62426    0.00375    0.25837    1.000
    C10      C        0.42654    0.88140    0.28398    1.000
    C11      C        0.98755    0.02457    0.65962    1.000
    C12      C        0.93910    0.93498    0.66216    1.000
    C13      C        0.03496    0.19417    0.38188    1.000
    C14      C        0.84287    0.03263    0.44252    1.000
    C15      C        0.41170    0.97753    0.36589    1.000
    C16      C        0.06090    0.06502    0.33784    1.000
    C17      C        0.58830    0.02247    0.63411    1.000
    C18      C        0.37740    0.88974    0.66401    1.000
    C19      C        0.62260    0.11026    0.33599    1.000
    C20      C        0.12067    0.08499    0.60718    1.000
    C21      C        0.96504    0.80583    0.61812    1.000
    C22      C        0.37574    0.99625    0.74163    1.000
    C23      C        0.15713    0.96737    0.55748    1.000
    C24      C        0.57346    0.11860    0.71602    1.000
    C25      C        0.02311    0.90394    0.61258    1.000
    C26      C        0.44986    0.97038    0.68000    1.000
    C27      C        0.87933    0.91501    0.39282    1.000
    C28      C        0.97689    0.09606    0.38742    1.000
    N1       N        0.32906    0.00763    0.42215    1.000
    N2       N        0.24528    0.93702    0.50448    1.000
    N3       N        0.67094    0.99237    0.57785    1.000
    N4       N        0.75472    0.06298    0.49552    1.000
    O1       O        0.15549    0.22816    0.36739    1.000
    O2       O        0.43987    0.86936    0.60286    1.000
    O3       O        0.84451    0.77184    0.63261    1.000
    O4       O        0.03655    0.75684    0.60810    1.000
    O5       O        0.25344    0.84514    0.71289    1.000
    O6       O        0.96345    0.24316    0.39190    1.000
    O7       O        0.74656    0.15486    0.28711    1.000
    O8       O        0.56013    0.13064    0.39714    1.000
    Cd3      Cd       0.47107    0.61132    0.75697    1.000
    Cd4      Cd       0.52893    0.38868    0.24303    1.000
    H17      H        0.55250    0.89630    0.83280    1.000
    H18      H        0.95410    0.40760    0.89490    1.000
    H19      H        0.31970    0.26510    0.96380    1.000
    H20      H        0.11410    0.73760    0.95570    1.000
    H21      H        0.38840    0.75240    0.87010    1.000
    H22      H        0.99190    0.75120    0.85500    1.000
    H23      H        0.80120    0.61800    0.90240    1.000
    H24      H        0.69970    0.88730    0.91440    1.000
    H25      H        0.00810    0.24880    0.14500    1.000
    H26      H        0.68030    0.73490    0.03620    1.000
    H27      H        0.04590    0.59240    0.10510    1.000
    H28      H        0.88590    0.26240    0.04430    1.000
    H29      H        0.44750    0.10370    0.16720    1.000
    H30      H        0.30030    0.11270    0.08560    1.000
    H31      H        0.19880    0.38200    0.09760    1.000
    H32      H        0.61160    0.24760    0.12990    1.000
    C29      C        0.54514    0.83462    0.88140    1.000
    C30      C        0.99588    0.59714    0.06502    1.000
    C31      C        0.81024    0.52485    0.03263    1.000
    C32      C        0.43417    0.65658    0.97753    1.000
    C33      C        0.11917    0.48348    0.90394    1.000
    C34      C        0.00412    0.40286    0.93498    1.000
    C35      C        0.47948    0.34962    0.97038    1.000
    C36      C        0.88083    0.51652    0.09606    1.000
    C37      C        0.03568    0.30783    0.08499    1.000
    C38      C        0.15921    0.57605    0.80583    1.000
    C39      C        0.45486    0.16538    0.11860    1.000
    C40      C        0.44643    0.74862    0.90403    1.000
    C41      C        0.14961    0.38740    0.05677    1.000
    C42      C        0.18976    0.47515    0.96737    1.000
    C43      C        0.36739    0.17064    0.06947    1.000
    C44      C        0.51234    0.55375    0.11026    1.000
    C45      C        0.96432    0.69217    0.91501    1.000
    C46      C        0.63261    0.82936    0.93053    1.000
    C47      C        0.56583    0.34342    0.02247    1.000
    C48      C        0.85039    0.61260    0.94323    1.000
    C49      C        0.62051    0.73788    0.00375    1.000
    C50      C        0.03702    0.68419    0.97543    1.000
    C51      C        0.52052    0.65038    0.02962    1.000
    C52      C        0.84079    0.42395    0.19417    1.000
    C53      C        0.48766    0.44625    0.88974    1.000
    C54      C        0.55357    0.25138    0.09597    1.000
    C55      C        0.96298    0.31581    0.02457    1.000
    C56      C        0.37949    0.26212    0.99625    1.000
    N5       N        0.69174    0.44150    0.06298    1.000
    N6       N        0.67857    0.42978    0.99237    1.000
    N7       N        0.30826    0.55850    0.93702    1.000
    N8       N        0.32143    0.57022    0.00763    1.000
    O9       O        0.59170    0.55803    0.15486    1.000
    O10      O        0.72029    0.36494    0.24316    1.000
    O11      O        0.07267    0.59555    0.77184    1.000
    O12      O        0.27971    0.63506    0.75684    1.000
    O13      O        0.42949    0.47222    0.13064    1.000
    O14      O        0.92733    0.40445    0.22816    1.000
    O15      O        0.57051    0.52778    0.86936    1.000
    O16      O        0.40830    0.44197    0.84514    1.000
    Cd5      Cd       0.85975    0.63171    0.61132    1.000
    Cd6      Cd       0.14025    0.36829    0.38868    1.000
    H33      H        0.81240    0.19830    0.88730    1.000
    H34      H        0.94540    0.22890    0.73490    1.000
    H35      H        0.63600    0.37750    0.75240    1.000
    H36      H        0.18320    0.47960    0.61800    1.000
    H37      H        0.34380    0.72910    0.10370    1.000
    H38      H        0.75930    0.60620    0.24880    1.000
    H39      H        0.37650    0.30670    0.73760    1.000
    H40      H        0.65620    0.27090    0.89630    1.000
    H41      H        0.18760    0.80170    0.11270    1.000
    H42      H        0.05460    0.77110    0.26510    1.000
    H43      H        0.45350    0.30250    0.59240    1.000
    H44      H        0.36400    0.62250    0.24760    1.000
    H45      H        0.24070    0.39380    0.75120    1.000
    H46      H        0.54650    0.69750    0.40760    1.000
    H47      H        0.81680    0.52040    0.38200    1.000
    H48      H        0.62350    0.69330    0.26240    1.000
    C57      C        0.39874    0.33784    0.59714    1.000
    C58      C        0.71052    0.28398    0.83462    1.000
    C59      C        0.71461    0.55748    0.47515    1.000
    C60      C        0.28948    0.71602    0.16538    1.000
    C61      C        0.35283    0.34038    0.68419    1.000
    C62      C        0.63569    0.61258    0.48348    1.000
    C63      C        0.22241    0.63411    0.34342    1.000
    C64      C        0.77759    0.36589    0.65658    1.000
    C65      C        0.76221    0.55583    0.38740    1.000
    C66      C        0.11737    0.74163    0.26212    1.000
    C67      C        0.60126    0.66216    0.40286    1.000
    C68      C        0.72785    0.60718    0.30783    1.000
    C69      C        0.95859    0.33599    0.55375    1.000
    C70      C        0.12986    0.68000    0.34962    1.000
    C71      C        0.36431    0.38742    0.51652    1.000
    C72      C        0.64717    0.65962    0.31581    1.000
    C73      C        0.23779    0.44417    0.61260    1.000
    C74      C        0.58316    0.61812    0.57605    1.000
    C75      C        0.28539    0.44252    0.52485    1.000
    C76      C        0.69781    0.34735    0.74862    1.000
    C77      C        0.19675    0.75989    0.17064    1.000
    C78      C        0.80325    0.24011    0.82936    1.000
    C79      C        0.04141    0.66401    0.44625    1.000
    C80      C        0.88263    0.25837    0.73788    1.000
    C81      C        0.41684    0.38188    0.42395    1.000
    C82      C        0.27215    0.39282    0.69217    1.000
    C83      C        0.30219    0.65265    0.25138    1.000
    C84      C        0.87014    0.32000    0.65038    1.000
    N9       N        0.74976    0.50448    0.55850    1.000
    N10      N        0.24879    0.57785    0.42978    1.000
    N11      N        0.25024    0.49552    0.44150    1.000
    N12      N        0.75121    0.42215    0.57022    1.000
    O17      O        0.03367    0.28711    0.55803    1.000
    O18      O        0.47712    0.63261    0.59555    1.000
    O19      O        0.95727    0.39714    0.47222    1.000
    O20      O        0.04273    0.60286    0.52778    1.000
    O21      O        0.35535    0.39190    0.36494    1.000
    O22      O        0.64465    0.60810    0.63506    1.000
    O23      O        0.52288    0.36739    0.40445    1.000
    O24      O        0.96633    0.71289    0.44197    1.000
