# CIF file generated by openbabel 3.1.0, see https://openbabel.org
data_I
_chemical_name_common 'image0'
_cell_length_a 26.1514
_cell_length_b 31.9344
_cell_length_c 22.1932
_cell_angle_alpha 90
_cell_angle_beta 90
_cell_angle_gamma 90
_space_group_name_H-M_alt 'P 1'
_space_group_name_Hall 'P 1'
loop_
    _symmetry_equiv_pos_as_xyz
    x,y,z
loop_
    _atom_site_label
    _atom_site_type_symbol
    _atom_site_fract_x
    _atom_site_fract_y
    _atom_site_fract_z
    _atom_site_occupancy
    Cd1      Cd       0.13780    0.87438    0.80880    1.000
    Cd2      Cd       0.88543    0.87781    0.33049    1.000
    O1       O        0.13670    0.81321    0.87100    1.000
    O2       O        0.20200    0.81677    0.80940    1.000
    O3       O        0.32120    0.64917    0.88440    1.000
    O4       O        0.33400    0.69920    0.81820    1.000
    O5       O        0.14300    0.71880    0.04150    1.000
    O6       O        0.20310    0.67220    0.04920    1.000
    N1       N        0.09350    0.83944    0.73350    1.000
    N2       N        0.93780    0.84678    0.40140    1.000
    N3       N        0.18820    0.90530    0.88210    1.000
    N4       N        0.32390    0.90851    0.22970    1.000
    N5       N        0.18120    0.70100    0.02240    1.000
    C1       C        0.09710    0.79790    0.72850    1.000
    H1       H        0.12070    0.78330    0.75320    1.000
    C2       C        0.06750    0.77580    0.68860    1.000
    H2       H        0.06920    0.74610    0.68780    1.000
    C3       C        0.03800    0.84020    0.64910    1.000
    H3       H        0.02000    0.85660    0.62030    1.000
    C4       C        0.06800    0.85950    0.69170    1.000
    H4       H        0.07040    0.88920    0.69080    1.000
    C5       C        0.03400    0.79720    0.64820    1.000
    C6       C        0.99960    0.77460    0.60550    1.000
    H5       H        0.96370    0.78450    0.61140    1.000
    C7       C        0.01160    0.77260    0.53690    1.000
    H6       H        0.04940    0.77130    0.53030    1.000
    C8       C        0.98790    0.80220    0.49280    1.000
    C9       C        0.00630    0.80320    0.43370    1.000
    H7       H        0.03680    0.78860    0.42360    1.000
    C10      C        0.98030    0.82540    0.39010    1.000
    H8       H        0.99350    0.82550    0.35020    1.000
    C11      C        0.92080    0.84660    0.45910    1.000
    H9       H        0.89070    0.86190    0.46820    1.000
    C12      C        0.94430    0.82560    0.50510    1.000
    H10      H        0.93100    0.82700    0.54490    1.000
    C13      C        0.16810    0.90820    0.93790    1.000
    H11      H        0.13610    0.89500    0.94500    1.000
    C14      C        0.19050    0.92850    0.98440    1.000
    H12      H        0.17450    0.92920    0.02280    1.000
    C15      C        0.23780    0.94840    0.97530    1.000
    C16      C        0.25980    0.94390    0.91890    1.000
    H13      H        0.29250    0.95570    0.91080    1.000
    C17      C        0.23410    0.92210    0.87460    1.000
    H14      H        0.25020    0.91900    0.83650    1.000
    C18      C        0.26090    0.97710    0.02080    1.000
    H15      H        0.29880    0.97790    0.01530    1.000
    C19      C        0.24810    0.97560    0.08880    1.000
    H16      H        0.21130    0.96770    0.09320    1.000
    C20      C        0.27820    0.95190    0.13460    1.000
    C21      C        0.28000    0.90920    0.13480    1.000
    H17      H        0.26660    0.89380    0.10170    1.000
    C22      C        0.30150    0.88840    0.18330    1.000
    H18      H        0.30040    0.85860    0.18400    1.000
    C23      C        0.32070    0.95120    0.22980    1.000
    H19      H        0.33330    0.96580    0.26400    1.000
    C24      C        0.30040    0.97400    0.18360    1.000
    H20      H        0.30100    0.00370    0.18420    1.000
    C25      C        0.17920    0.80020    0.85220    1.000
    C26      C        0.20260    0.76260    0.88320    1.000
    C27      C        0.24480    0.74230    0.85930    1.000
    H21      H        0.25990    0.75250    0.82320    1.000
    C28      C        0.26530    0.70750    0.88730    1.000
    C29      C        0.31040    0.68410    0.86210    1.000
    C30      C        0.24490    0.69420    0.94210    1.000
    H22      H        0.25950    0.67100    0.96270    1.000
    C31      C        0.20310    0.71500    0.96600    1.000
    C32      C        0.18160    0.74930    0.93720    1.000
    H23      H        0.15300    0.76340    0.95420    1.000
    C33      C        0.10930    0.80600    0.70500    1.000
    H24      H        0.14260    0.79600    0.71420    1.000
    C34      C        0.08180    0.78440    0.66320    1.000
    H25      H        0.09600    0.76040    0.64450    1.000
    C35      C        0.01250    0.83120    0.67830    1.000
    H26      H        0.97830    0.83970    0.67050    1.000
    C36      C        0.04170    0.85200    0.71920    1.000
    H27      H        0.02760    0.87560    0.73920    1.000
    C37      C        0.26500    0.91030    0.14890    1.000
    H28      H        0.24000    0.89570    0.12600    1.000
    C38      C        0.28860    0.89180    0.19560    1.000
    H29      H        0.27860    0.86400    0.20470    1.000
    C39      C        0.34360    0.94640    0.20660    1.000
    H30      H        0.37410    0.95740    0.22370    1.000
    C40      C        0.32140    0.96740    0.16180    1.000
    H31      H        0.33550    0.99320    0.14870    1.000
    Cd3      Cd       0.63780    0.37438    0.80880    1.000
    Cd4      Cd       0.38543    0.37781    0.33049    1.000
    O7       O        0.63670    0.31321    0.87100    1.000
    O8       O        0.70200    0.31677    0.80940    1.000
    O9       O        0.82120    0.14917    0.88440    1.000
    O10      O        0.83400    0.19920    0.81820    1.000
    O11      O        0.64300    0.21880    0.04150    1.000
    O12      O        0.70310    0.17220    0.04920    1.000
    N6       N        0.59350    0.33944    0.73350    1.000
    N7       N        0.43780    0.34678    0.40140    1.000
    N8       N        0.68820    0.40530    0.88210    1.000
    N9       N        0.82390    0.40851    0.22970    1.000
    N10      N        0.68120    0.20100    0.02240    1.000
    C41      C        0.59710    0.29790    0.72850    1.000
    H32      H        0.62070    0.28330    0.75320    1.000
    C42      C        0.56750    0.27580    0.68860    1.000
    H33      H        0.56920    0.24610    0.68780    1.000
    C43      C        0.53800    0.34020    0.64910    1.000
    H34      H        0.52000    0.35660    0.62030    1.000
    C44      C        0.56800    0.35950    0.69170    1.000
    H35      H        0.57040    0.38920    0.69080    1.000
    C45      C        0.53400    0.29720    0.64820    1.000
    C46      C        0.49960    0.27460    0.60550    1.000
    H36      H        0.46370    0.28450    0.61140    1.000
    C47      C        0.51160    0.27260    0.53690    1.000
    H37      H        0.54940    0.27130    0.53030    1.000
    C48      C        0.48790    0.30220    0.49280    1.000
    C49      C        0.50630    0.30320    0.43370    1.000
    H38      H        0.53680    0.28860    0.42360    1.000
    C50      C        0.48030    0.32540    0.39010    1.000
    H39      H        0.49350    0.32550    0.35020    1.000
    C51      C        0.42080    0.34660    0.45910    1.000
    H40      H        0.39070    0.36190    0.46820    1.000
    C52      C        0.44430    0.32560    0.50510    1.000
    H41      H        0.43100    0.32700    0.54490    1.000
    C53      C        0.66810    0.40820    0.93790    1.000
    H42      H        0.63610    0.39500    0.94500    1.000
    C54      C        0.69050    0.42850    0.98440    1.000
    H43      H        0.67450    0.42920    0.02280    1.000
    C55      C        0.73780    0.44840    0.97530    1.000
    C56      C        0.75980    0.44390    0.91890    1.000
    H44      H        0.79250    0.45570    0.91080    1.000
    C57      C        0.73410    0.42210    0.87460    1.000
    H45      H        0.75020    0.41900    0.83650    1.000
    C58      C        0.76090    0.47710    0.02080    1.000
    H46      H        0.79880    0.47790    0.01530    1.000
    C59      C        0.74810    0.47560    0.08880    1.000
    H47      H        0.71130    0.46770    0.09320    1.000
    C60      C        0.77820    0.45190    0.13460    1.000
    C61      C        0.78000    0.40920    0.13480    1.000
    H48      H        0.76660    0.39380    0.10170    1.000
    C62      C        0.80150    0.38840    0.18330    1.000
    H49      H        0.80040    0.35860    0.18400    1.000
    C63      C        0.82070    0.45120    0.22980    1.000
    H50      H        0.83330    0.46580    0.26400    1.000
    C64      C        0.80040    0.47400    0.18360    1.000
    H51      H        0.80100    0.50370    0.18420    1.000
    C65      C        0.67920    0.30020    0.85220    1.000
    C66      C        0.70260    0.26260    0.88320    1.000
    C67      C        0.74480    0.24230    0.85930    1.000
    H52      H        0.75990    0.25250    0.82320    1.000
    C68      C        0.76530    0.20750    0.88730    1.000
    C69      C        0.81040    0.18410    0.86210    1.000
    C70      C        0.74490    0.19420    0.94210    1.000
    H53      H        0.75950    0.17100    0.96270    1.000
    C71      C        0.70310    0.21500    0.96600    1.000
    C72      C        0.68160    0.24930    0.93720    1.000
    H54      H        0.65300    0.26340    0.95420    1.000
    C73      C        0.60930    0.30600    0.70500    1.000
    H55      H        0.64260    0.29600    0.71420    1.000
    C74      C        0.58180    0.28440    0.66320    1.000
    H56      H        0.59600    0.26040    0.64450    1.000
    C75      C        0.51250    0.33120    0.67830    1.000
    H57      H        0.47830    0.33970    0.67050    1.000
    C76      C        0.54170    0.35200    0.71920    1.000
    H58      H        0.52760    0.37560    0.73920    1.000
    C77      C        0.76500    0.41030    0.14890    1.000
    H59      H        0.74000    0.39570    0.12600    1.000
    C78      C        0.78860    0.39180    0.19560    1.000
    H60      H        0.77860    0.36400    0.20470    1.000
    C79      C        0.84360    0.44640    0.20660    1.000
    H61      H        0.87410    0.45740    0.22370    1.000
    C80      C        0.82140    0.46740    0.16180    1.000
    H62      H        0.83550    0.49320    0.14870    1.000
    Cd5      Cd       0.36220    0.12562    0.80880    1.000
    Cd6      Cd       0.61457    0.12219    0.33049    1.000
    O13      O        0.36330    0.18679    0.87100    1.000
    O14      O        0.29800    0.18323    0.80940    1.000
    O15      O        0.17880    0.35083    0.88440    1.000
    O16      O        0.16600    0.30080    0.81820    1.000
    O17      O        0.35700    0.28120    0.04150    1.000
    O18      O        0.29690    0.32780    0.04920    1.000
    N11      N        0.40650    0.16056    0.73350    1.000
    N12      N        0.56220    0.15322    0.40140    1.000
    N13      N        0.31180    0.09470    0.88210    1.000
    N14      N        0.17610    0.09149    0.22970    1.000
    N15      N        0.31880    0.29900    0.02240    1.000
    C81      C        0.40290    0.20210    0.72850    1.000
    H63      H        0.37930    0.21670    0.75320    1.000
    C82      C        0.43250    0.22420    0.68860    1.000
    H64      H        0.43080    0.25390    0.68780    1.000
    C83      C        0.46200    0.15980    0.64910    1.000
    H65      H        0.48000    0.14340    0.62030    1.000
    C84      C        0.43200    0.14050    0.69170    1.000
    H66      H        0.42960    0.11080    0.69080    1.000
    C85      C        0.46600    0.20280    0.64820    1.000
    C86      C        0.50040    0.22540    0.60550    1.000
    H67      H        0.53630    0.21550    0.61140    1.000
    C87      C        0.48840    0.22740    0.53690    1.000
    H68      H        0.45060    0.22870    0.53030    1.000
    C88      C        0.51210    0.19780    0.49280    1.000
    C89      C        0.49370    0.19680    0.43370    1.000
    H69      H        0.46320    0.21140    0.42360    1.000
    C90      C        0.51970    0.17460    0.39010    1.000
    H70      H        0.50650    0.17450    0.35020    1.000
    C91      C        0.57920    0.15340    0.45910    1.000
    H71      H        0.60930    0.13810    0.46820    1.000
    C92      C        0.55570    0.17440    0.50510    1.000
    H72      H        0.56900    0.17300    0.54490    1.000
    C93      C        0.33190    0.09180    0.93790    1.000
    H73      H        0.36390    0.10500    0.94500    1.000
    C94      C        0.30950    0.07150    0.98440    1.000
    H74      H        0.32550    0.07080    0.02280    1.000
    C95      C        0.26220    0.05160    0.97530    1.000
    C96      C        0.24020    0.05610    0.91890    1.000
    H75      H        0.20750    0.04430    0.91080    1.000
    C97      C        0.26590    0.07790    0.87460    1.000
    H76      H        0.24980    0.08100    0.83650    1.000
    C98      C        0.23910    0.02290    0.02080    1.000
    H77      H        0.20120    0.02210    0.01530    1.000
    C99      C        0.25190    0.02440    0.08880    1.000
    H78      H        0.28870    0.03230    0.09320    1.000
    C100     C        0.22180    0.04810    0.13460    1.000
    C101     C        0.22000    0.09080    0.13480    1.000
    H79      H        0.23340    0.10620    0.10170    1.000
    C102     C        0.19850    0.11160    0.18330    1.000
    H80      H        0.19960    0.14140    0.18400    1.000
    C103     C        0.17930    0.04880    0.22980    1.000
    H81      H        0.16670    0.03420    0.26400    1.000
    C104     C        0.19960    0.02600    0.18360    1.000
    H82      H        0.19900    0.99630    0.18420    1.000
    C105     C        0.32080    0.19980    0.85220    1.000
    C106     C        0.29740    0.23740    0.88320    1.000
    C107     C        0.25520    0.25770    0.85930    1.000
    H83      H        0.24010    0.24750    0.82320    1.000
    C108     C        0.23470    0.29250    0.88730    1.000
    C109     C        0.18960    0.31590    0.86210    1.000
    C110     C        0.25510    0.30580    0.94210    1.000
    H84      H        0.24050    0.32900    0.96270    1.000
    C111     C        0.29690    0.28500    0.96600    1.000
    C112     C        0.31840    0.25070    0.93720    1.000
    H85      H        0.34700    0.23660    0.95420    1.000
    C113     C        0.39070    0.19400    0.70500    1.000
    H86      H        0.35740    0.20400    0.71420    1.000
    C114     C        0.41820    0.21560    0.66320    1.000
    H87      H        0.40400    0.23960    0.64450    1.000
    C115     C        0.48750    0.16880    0.67830    1.000
    H88      H        0.52170    0.16030    0.67050    1.000
    C116     C        0.45830    0.14800    0.71920    1.000
    H89      H        0.47240    0.12440    0.73920    1.000
    C117     C        0.23500    0.08970    0.14890    1.000
    H90      H        0.26000    0.10430    0.12600    1.000
    C118     C        0.21140    0.10820    0.19560    1.000
    H91      H        0.22140    0.13600    0.20470    1.000
    C119     C        0.15640    0.05360    0.20660    1.000
    H92      H        0.12590    0.04260    0.22370    1.000
    C120     C        0.17860    0.03260    0.16180    1.000
    H93      H        0.16450    0.00680    0.14870    1.000
    Cd7      Cd       0.86220    0.62562    0.80880    1.000
    Cd8      Cd       0.11457    0.62219    0.33049    1.000
    O19      O        0.86330    0.68679    0.87100    1.000
    O20      O        0.79800    0.68323    0.80940    1.000
    O21      O        0.67880    0.85083    0.88440    1.000
    O22      O        0.66600    0.80080    0.81820    1.000
    O23      O        0.85700    0.78120    0.04150    1.000
    O24      O        0.79690    0.82780    0.04920    1.000
    N16      N        0.90650    0.66056    0.73350    1.000
    N17      N        0.06220    0.65322    0.40140    1.000
    N18      N        0.81180    0.59470    0.88210    1.000
    N19      N        0.67610    0.59149    0.22970    1.000
    N20      N        0.81880    0.79900    0.02240    1.000
    C121     C        0.90290    0.70210    0.72850    1.000
    H94      H        0.87930    0.71670    0.75320    1.000
    C122     C        0.93250    0.72420    0.68860    1.000
    H95      H        0.93080    0.75390    0.68780    1.000
    C123     C        0.96200    0.65980    0.64910    1.000
    H96      H        0.98000    0.64340    0.62030    1.000
    C124     C        0.93200    0.64050    0.69170    1.000
    H97      H        0.92960    0.61080    0.69080    1.000
    C125     C        0.96600    0.70280    0.64820    1.000
    C126     C        0.00040    0.72540    0.60550    1.000
    H98      H        0.03630    0.71550    0.61140    1.000
    C127     C        0.98840    0.72740    0.53690    1.000
    H99      H        0.95060    0.72870    0.53030    1.000
    C128     C        0.01210    0.69780    0.49280    1.000
    C129     C        0.99370    0.69680    0.43370    1.000
    H100     H        0.96320    0.71140    0.42360    1.000
    C130     C        0.01970    0.67460    0.39010    1.000
    H101     H        0.00650    0.67450    0.35020    1.000
    C131     C        0.07920    0.65340    0.45910    1.000
    H102     H        0.10930    0.63810    0.46820    1.000
    C132     C        0.05570    0.67440    0.50510    1.000
    H103     H        0.06900    0.67300    0.54490    1.000
    C133     C        0.83190    0.59180    0.93790    1.000
    H104     H        0.86390    0.60500    0.94500    1.000
    C134     C        0.80950    0.57150    0.98440    1.000
    H105     H        0.82550    0.57080    0.02280    1.000
    C135     C        0.76220    0.55160    0.97530    1.000
    C136     C        0.74020    0.55610    0.91890    1.000
    H106     H        0.70750    0.54430    0.91080    1.000
    C137     C        0.76590    0.57790    0.87460    1.000
    H107     H        0.74980    0.58100    0.83650    1.000
    C138     C        0.73910    0.52290    0.02080    1.000
    H108     H        0.70120    0.52210    0.01530    1.000
    C139     C        0.75190    0.52440    0.08880    1.000
    H109     H        0.78870    0.53230    0.09320    1.000
    C140     C        0.72180    0.54810    0.13460    1.000
    C141     C        0.72000    0.59080    0.13480    1.000
    H110     H        0.73340    0.60620    0.10170    1.000
    C142     C        0.69850    0.61160    0.18330    1.000
    H111     H        0.69960    0.64140    0.18400    1.000
    C143     C        0.67930    0.54880    0.22980    1.000
    H112     H        0.66670    0.53420    0.26400    1.000
    C144     C        0.69960    0.52600    0.18360    1.000
    H113     H        0.69900    0.49630    0.18420    1.000
    C145     C        0.82080    0.69980    0.85220    1.000
    C146     C        0.79740    0.73740    0.88320    1.000
    C147     C        0.75520    0.75770    0.85930    1.000
    H114     H        0.74010    0.74750    0.82320    1.000
    C148     C        0.73470    0.79250    0.88730    1.000
    C149     C        0.68960    0.81590    0.86210    1.000
    C150     C        0.75510    0.80580    0.94210    1.000
    H115     H        0.74050    0.82900    0.96270    1.000
    C151     C        0.79690    0.78500    0.96600    1.000
    C152     C        0.81840    0.75070    0.93720    1.000
    H116     H        0.84700    0.73660    0.95420    1.000
    C153     C        0.89070    0.69400    0.70500    1.000
    H117     H        0.85740    0.70400    0.71420    1.000
    C154     C        0.91820    0.71560    0.66320    1.000
    H118     H        0.90400    0.73960    0.64450    1.000
    C155     C        0.98750    0.66880    0.67830    1.000
    H119     H        0.02170    0.66030    0.67050    1.000
    C156     C        0.95830    0.64800    0.71920    1.000
    H120     H        0.97240    0.62440    0.73920    1.000
    C157     C        0.73500    0.58970    0.14890    1.000
    H121     H        0.76000    0.60430    0.12600    1.000
    C158     C        0.71140    0.60820    0.19560    1.000
    H122     H        0.72140    0.63600    0.20470    1.000
    C159     C        0.65640    0.55360    0.20660    1.000
    H123     H        0.62590    0.54260    0.22370    1.000
    C160     C        0.67860    0.53260    0.16180    1.000
    H124     H        0.66450    0.50680    0.14870    1.000
    Cd9      Cd       0.13780    0.12562    0.30880    1.000
    Cd10     Cd       0.88543    0.12219    0.83049    1.000
    O25      O        0.13670    0.18679    0.37100    1.000
    O26      O        0.20200    0.18323    0.30940    1.000
    O27      O        0.32120    0.35083    0.38440    1.000
    O28      O        0.33400    0.30080    0.31820    1.000
    O29      O        0.14300    0.28120    0.54150    1.000
    O30      O        0.20310    0.32780    0.54920    1.000
    N21      N        0.09350    0.16056    0.23350    1.000
    N22      N        0.93780    0.15322    0.90140    1.000
    N23      N        0.18820    0.09470    0.38210    1.000
    N24      N        0.32390    0.09149    0.72970    1.000
    N25      N        0.18120    0.29900    0.52240    1.000
    C161     C        0.09710    0.20210    0.22850    1.000
    H125     H        0.12070    0.21670    0.25320    1.000
    C162     C        0.06750    0.22420    0.18860    1.000
    H126     H        0.06920    0.25390    0.18780    1.000
    C163     C        0.03800    0.15980    0.14910    1.000
    H127     H        0.02000    0.14340    0.12030    1.000
    C164     C        0.06800    0.14050    0.19170    1.000
    H128     H        0.07040    0.11080    0.19080    1.000
    C165     C        0.03400    0.20280    0.14820    1.000
    C166     C        0.99960    0.22540    0.10550    1.000
    H129     H        0.96370    0.21550    0.11140    1.000
    C167     C        0.01160    0.22740    0.03690    1.000
    H130     H        0.04940    0.22870    0.03030    1.000
    C168     C        0.98790    0.19780    0.99280    1.000
    C169     C        0.00630    0.19680    0.93370    1.000
    H131     H        0.03680    0.21140    0.92360    1.000
    C170     C        0.98030    0.17460    0.89010    1.000
    H132     H        0.99350    0.17450    0.85020    1.000
    C171     C        0.92080    0.15340    0.95910    1.000
    H133     H        0.89070    0.13810    0.96820    1.000
    C172     C        0.94430    0.17440    0.00510    1.000
    H134     H        0.93100    0.17300    0.04490    1.000
    C173     C        0.16810    0.09180    0.43790    1.000
    H135     H        0.13610    0.10500    0.44500    1.000
    C174     C        0.19050    0.07150    0.48440    1.000
    H136     H        0.17450    0.07080    0.52280    1.000
    C175     C        0.23780    0.05160    0.47530    1.000
    C176     C        0.25980    0.05610    0.41890    1.000
    H137     H        0.29250    0.04430    0.41080    1.000
    C177     C        0.23410    0.07790    0.37460    1.000
    H138     H        0.25020    0.08100    0.33650    1.000
    C178     C        0.26090    0.02290    0.52080    1.000
    H139     H        0.29880    0.02210    0.51530    1.000
    C179     C        0.24810    0.02440    0.58880    1.000
    H140     H        0.21130    0.03230    0.59320    1.000
    C180     C        0.27820    0.04810    0.63460    1.000
    C181     C        0.28000    0.09080    0.63480    1.000
    H141     H        0.26660    0.10620    0.60170    1.000
    C182     C        0.30150    0.11160    0.68330    1.000
    H142     H        0.30040    0.14140    0.68400    1.000
    C183     C        0.32070    0.04880    0.72980    1.000
    H143     H        0.33330    0.03420    0.76400    1.000
    C184     C        0.30040    0.02600    0.68360    1.000
    H144     H        0.30100    0.99630    0.68420    1.000
    C185     C        0.17920    0.19980    0.35220    1.000
    C186     C        0.20260    0.23740    0.38320    1.000
    C187     C        0.24480    0.25770    0.35930    1.000
    H145     H        0.25990    0.24750    0.32320    1.000
    C188     C        0.26530    0.29250    0.38730    1.000
    C189     C        0.31040    0.31590    0.36210    1.000
    C190     C        0.24490    0.30580    0.44210    1.000
    H146     H        0.25950    0.32900    0.46270    1.000
    C191     C        0.20310    0.28500    0.46600    1.000
    C192     C        0.18160    0.25070    0.43720    1.000
    H147     H        0.15300    0.23660    0.45420    1.000
    C193     C        0.10930    0.19400    0.20500    1.000
    H148     H        0.14260    0.20400    0.21420    1.000
    C194     C        0.08180    0.21560    0.16320    1.000
    H149     H        0.09600    0.23960    0.14450    1.000
    C195     C        0.01250    0.16880    0.17830    1.000
    H150     H        0.97830    0.16030    0.17050    1.000
    C196     C        0.04170    0.14800    0.21920    1.000
    H151     H        0.02760    0.12440    0.23920    1.000
    C197     C        0.26500    0.08970    0.64890    1.000
    H152     H        0.24000    0.10430    0.62600    1.000
    C198     C        0.28860    0.10820    0.69560    1.000
    H153     H        0.27860    0.13600    0.70470    1.000
    C199     C        0.34360    0.05360    0.70660    1.000
    H154     H        0.37410    0.04260    0.72370    1.000
    C200     C        0.32140    0.03260    0.66180    1.000
    H155     H        0.33550    0.00680    0.64870    1.000
    Cd11     Cd       0.63780    0.62562    0.30880    1.000
    Cd12     Cd       0.38543    0.62219    0.83049    1.000
    O31      O        0.63670    0.68679    0.37100    1.000
    O32      O        0.70200    0.68323    0.30940    1.000
    O33      O        0.82120    0.85083    0.38440    1.000
    O34      O        0.83400    0.80080    0.31820    1.000
    O35      O        0.64300    0.78120    0.54150    1.000
    O36      O        0.70310    0.82780    0.54920    1.000
    N26      N        0.59350    0.66056    0.23350    1.000
    N27      N        0.43780    0.65322    0.90140    1.000
    N28      N        0.68820    0.59470    0.38210    1.000
    N29      N        0.82390    0.59149    0.72970    1.000
    N30      N        0.68120    0.79900    0.52240    1.000
    C201     C        0.59710    0.70210    0.22850    1.000
    H156     H        0.62070    0.71670    0.25320    1.000
    C202     C        0.56750    0.72420    0.18860    1.000
    H157     H        0.56920    0.75390    0.18780    1.000
    C203     C        0.53800    0.65980    0.14910    1.000
    H158     H        0.52000    0.64340    0.12030    1.000
    C204     C        0.56800    0.64050    0.19170    1.000
    H159     H        0.57040    0.61080    0.19080    1.000
    C205     C        0.53400    0.70280    0.14820    1.000
    C206     C        0.49960    0.72540    0.10550    1.000
    H160     H        0.46370    0.71550    0.11140    1.000
    C207     C        0.51160    0.72740    0.03690    1.000
    H161     H        0.54940    0.72870    0.03030    1.000
    C208     C        0.48790    0.69780    0.99280    1.000
    C209     C        0.50630    0.69680    0.93370    1.000
    H162     H        0.53680    0.71140    0.92360    1.000
    C210     C        0.48030    0.67460    0.89010    1.000
    H163     H        0.49350    0.67450    0.85020    1.000
    C211     C        0.42080    0.65340    0.95910    1.000
    H164     H        0.39070    0.63810    0.96820    1.000
    C212     C        0.44430    0.67440    0.00510    1.000
    H165     H        0.43100    0.67300    0.04490    1.000
    C213     C        0.66810    0.59180    0.43790    1.000
    H166     H        0.63610    0.60500    0.44500    1.000
    C214     C        0.69050    0.57150    0.48440    1.000
    H167     H        0.67450    0.57080    0.52280    1.000
    C215     C        0.73780    0.55160    0.47530    1.000
    C216     C        0.75980    0.55610    0.41890    1.000
    H168     H        0.79250    0.54430    0.41080    1.000
    C217     C        0.73410    0.57790    0.37460    1.000
    H169     H        0.75020    0.58100    0.33650    1.000
    C218     C        0.76090    0.52290    0.52080    1.000
    H170     H        0.79880    0.52210    0.51530    1.000
    C219     C        0.74810    0.52440    0.58880    1.000
    H171     H        0.71130    0.53230    0.59320    1.000
    C220     C        0.77820    0.54810    0.63460    1.000
    C221     C        0.78000    0.59080    0.63480    1.000
    H172     H        0.76660    0.60620    0.60170    1.000
    C222     C        0.80150    0.61160    0.68330    1.000
    H173     H        0.80040    0.64140    0.68400    1.000
    C223     C        0.82070    0.54880    0.72980    1.000
    H174     H        0.83330    0.53420    0.76400    1.000
    C224     C        0.80040    0.52600    0.68360    1.000
    H175     H        0.80100    0.49630    0.68420    1.000
    C225     C        0.67920    0.69980    0.35220    1.000
    C226     C        0.70260    0.73740    0.38320    1.000
    C227     C        0.74480    0.75770    0.35930    1.000
    H176     H        0.75990    0.74750    0.32320    1.000
    C228     C        0.76530    0.79250    0.38730    1.000
    C229     C        0.81040    0.81590    0.36210    1.000
    C230     C        0.74490    0.80580    0.44210    1.000
    H177     H        0.75950    0.82900    0.46270    1.000
    C231     C        0.70310    0.78500    0.46600    1.000
    C232     C        0.68160    0.75070    0.43720    1.000
    H178     H        0.65300    0.73660    0.45420    1.000
    C233     C        0.60930    0.69400    0.20500    1.000
    H179     H        0.64260    0.70400    0.21420    1.000
    C234     C        0.58180    0.71560    0.16320    1.000
    H180     H        0.59600    0.73960    0.14450    1.000
    C235     C        0.51250    0.66880    0.17830    1.000
    H181     H        0.47830    0.66030    0.17050    1.000
    C236     C        0.54170    0.64800    0.21920    1.000
    H182     H        0.52760    0.62440    0.23920    1.000
    C237     C        0.76500    0.58970    0.64890    1.000
    H183     H        0.74000    0.60430    0.62600    1.000
    C238     C        0.78860    0.60820    0.69560    1.000
    H184     H        0.77860    0.63600    0.70470    1.000
    C239     C        0.84360    0.55360    0.70660    1.000
    H185     H        0.87410    0.54260    0.72370    1.000
    C240     C        0.82140    0.53260    0.66180    1.000
    H186     H        0.83550    0.50680    0.64870    1.000
    Cd13     Cd       0.36220    0.87438    0.30880    1.000
    Cd14     Cd       0.61457    0.87781    0.83049    1.000
    O37      O        0.36330    0.81321    0.37100    1.000
    O38      O        0.29800    0.81677    0.30940    1.000
    O39      O        0.17880    0.64917    0.38440    1.000
    O40      O        0.16600    0.69920    0.31820    1.000
    O41      O        0.35700    0.71880    0.54150    1.000
    O42      O        0.29690    0.67220    0.54920    1.000
    N31      N        0.40650    0.83944    0.23350    1.000
    N32      N        0.56220    0.84678    0.90140    1.000
    N33      N        0.31180    0.90530    0.38210    1.000
    N34      N        0.17610    0.90851    0.72970    1.000
    N35      N        0.31880    0.70100    0.52240    1.000
    C241     C        0.40290    0.79790    0.22850    1.000
    H187     H        0.37930    0.78330    0.25320    1.000
    C242     C        0.43250    0.77580    0.18860    1.000
    H188     H        0.43080    0.74610    0.18780    1.000
    C243     C        0.46200    0.84020    0.14910    1.000
    H189     H        0.48000    0.85660    0.12030    1.000
    C244     C        0.43200    0.85950    0.19170    1.000
    H190     H        0.42960    0.88920    0.19080    1.000
    C245     C        0.46600    0.79720    0.14820    1.000
    C246     C        0.50040    0.77460    0.10550    1.000
    H191     H        0.53630    0.78450    0.11140    1.000
    C247     C        0.48840    0.77260    0.03690    1.000
    H192     H        0.45060    0.77130    0.03030    1.000
    C248     C        0.51210    0.80220    0.99280    1.000
    C249     C        0.49370    0.80320    0.93370    1.000
    H193     H        0.46320    0.78860    0.92360    1.000
    C250     C        0.51970    0.82540    0.89010    1.000
    H194     H        0.50650    0.82550    0.85020    1.000
    C251     C        0.57920    0.84660    0.95910    1.000
    H195     H        0.60930    0.86190    0.96820    1.000
    C252     C        0.55570    0.82560    0.00510    1.000
    H196     H        0.56900    0.82700    0.04490    1.000
    C253     C        0.33190    0.90820    0.43790    1.000
    H197     H        0.36390    0.89500    0.44500    1.000
    C254     C        0.30950    0.92850    0.48440    1.000
    H198     H        0.32550    0.92920    0.52280    1.000
    C255     C        0.26220    0.94840    0.47530    1.000
    C256     C        0.24020    0.94390    0.41890    1.000
    H199     H        0.20750    0.95570    0.41080    1.000
    C257     C        0.26590    0.92210    0.37460    1.000
    H200     H        0.24980    0.91900    0.33650    1.000
    C258     C        0.23910    0.97710    0.52080    1.000
    H201     H        0.20120    0.97790    0.51530    1.000
    C259     C        0.25190    0.97560    0.58880    1.000
    H202     H        0.28870    0.96770    0.59320    1.000
    C260     C        0.22180    0.95190    0.63460    1.000
    C261     C        0.22000    0.90920    0.63480    1.000
    H203     H        0.23340    0.89380    0.60170    1.000
    C262     C        0.19850    0.88840    0.68330    1.000
    H204     H        0.19960    0.85860    0.68400    1.000
    C263     C        0.17930    0.95120    0.72980    1.000
    H205     H        0.16670    0.96580    0.76400    1.000
    C264     C        0.19960    0.97400    0.68360    1.000
    H206     H        0.19900    0.00370    0.68420    1.000
    C265     C        0.32080    0.80020    0.35220    1.000
    C266     C        0.29740    0.76260    0.38320    1.000
    C267     C        0.25520    0.74230    0.35930    1.000
    H207     H        0.24010    0.75250    0.32320    1.000
    C268     C        0.23470    0.70750    0.38730    1.000
    C269     C        0.18960    0.68410    0.36210    1.000
    C270     C        0.25510    0.69420    0.44210    1.000
    H208     H        0.24050    0.67100    0.46270    1.000
    C271     C        0.29690    0.71500    0.46600    1.000
    C272     C        0.31840    0.74930    0.43720    1.000
    H209     H        0.34700    0.76340    0.45420    1.000
    C273     C        0.39070    0.80600    0.20500    1.000
    H210     H        0.35740    0.79600    0.21420    1.000
    C274     C        0.41820    0.78440    0.16320    1.000
    H211     H        0.40400    0.76040    0.14450    1.000
    C275     C        0.48750    0.83120    0.17830    1.000
    H212     H        0.52170    0.83970    0.17050    1.000
    C276     C        0.45830    0.85200    0.21920    1.000
    H213     H        0.47240    0.87560    0.23920    1.000
    C277     C        0.23500    0.91030    0.64890    1.000
    H214     H        0.26000    0.89570    0.62600    1.000
    C278     C        0.21140    0.89180    0.69560    1.000
    H215     H        0.22140    0.86400    0.70470    1.000
    C279     C        0.15640    0.94640    0.70660    1.000
    H216     H        0.12590    0.95740    0.72370    1.000
    C280     C        0.17860    0.96740    0.66180    1.000
    H217     H        0.16450    0.99320    0.64870    1.000
    Cd15     Cd       0.86220    0.37438    0.30880    1.000
    Cd16     Cd       0.11457    0.37781    0.83049    1.000
    O43      O        0.86330    0.31321    0.37100    1.000
    O44      O        0.79800    0.31677    0.30940    1.000
    O45      O        0.67880    0.14917    0.38440    1.000
    O46      O        0.66600    0.19920    0.31820    1.000
    O47      O        0.85700    0.21880    0.54150    1.000
    O48      O        0.79690    0.17220    0.54920    1.000
    N36      N        0.90650    0.33944    0.23350    1.000
    N37      N        0.06220    0.34678    0.90140    1.000
    N38      N        0.81180    0.40530    0.38210    1.000
    N39      N        0.67610    0.40851    0.72970    1.000
    N40      N        0.81880    0.20100    0.52240    1.000
    C281     C        0.90290    0.29790    0.22850    1.000
    H218     H        0.87930    0.28330    0.25320    1.000
    C282     C        0.93250    0.27580    0.18860    1.000
    H219     H        0.93080    0.24610    0.18780    1.000
    C283     C        0.96200    0.34020    0.14910    1.000
    H220     H        0.98000    0.35660    0.12030    1.000
    C284     C        0.93200    0.35950    0.19170    1.000
    H221     H        0.92960    0.38920    0.19080    1.000
    C285     C        0.96600    0.29720    0.14820    1.000
    C286     C        0.00040    0.27460    0.10550    1.000
    H222     H        0.03630    0.28450    0.11140    1.000
    C287     C        0.98840    0.27260    0.03690    1.000
    H223     H        0.95060    0.27130    0.03030    1.000
    C288     C        0.01210    0.30220    0.99280    1.000
    C289     C        0.99370    0.30320    0.93370    1.000
    H224     H        0.96320    0.28860    0.92360    1.000
    C290     C        0.01970    0.32540    0.89010    1.000
    H225     H        0.00650    0.32550    0.85020    1.000
    C291     C        0.07920    0.34660    0.95910    1.000
    H226     H        0.10930    0.36190    0.96820    1.000
    C292     C        0.05570    0.32560    0.00510    1.000
    H227     H        0.06900    0.32700    0.04490    1.000
    C293     C        0.83190    0.40820    0.43790    1.000
    H228     H        0.86390    0.39500    0.44500    1.000
    C294     C        0.80950    0.42850    0.48440    1.000
    H229     H        0.82550    0.42920    0.52280    1.000
    C295     C        0.76220    0.44840    0.47530    1.000
    C296     C        0.74020    0.44390    0.41890    1.000
    H230     H        0.70750    0.45570    0.41080    1.000
    C297     C        0.76590    0.42210    0.37460    1.000
    H231     H        0.74980    0.41900    0.33650    1.000
    C298     C        0.73910    0.47710    0.52080    1.000
    H232     H        0.70120    0.47790    0.51530    1.000
    C299     C        0.75190    0.47560    0.58880    1.000
    H233     H        0.78870    0.46770    0.59320    1.000
    C300     C        0.72180    0.45190    0.63460    1.000
    C301     C        0.72000    0.40920    0.63480    1.000
    H234     H        0.73340    0.39380    0.60170    1.000
    C302     C        0.69850    0.38840    0.68330    1.000
    H235     H        0.69960    0.35860    0.68400    1.000
    C303     C        0.67930    0.45120    0.72980    1.000
    H236     H        0.66670    0.46580    0.76400    1.000
    C304     C        0.69960    0.47400    0.68360    1.000
    H237     H        0.69900    0.50370    0.68420    1.000
    C305     C        0.82080    0.30020    0.35220    1.000
    C306     C        0.79740    0.26260    0.38320    1.000
    C307     C        0.75520    0.24230    0.35930    1.000
    H238     H        0.74010    0.25250    0.32320    1.000
    C308     C        0.73470    0.20750    0.38730    1.000
    C309     C        0.68960    0.18410    0.36210    1.000
    C310     C        0.75510    0.19420    0.44210    1.000
    H239     H        0.74050    0.17100    0.46270    1.000
    C311     C        0.79690    0.21500    0.46600    1.000
    C312     C        0.81840    0.24930    0.43720    1.000
    H240     H        0.84700    0.26340    0.45420    1.000
    C313     C        0.89070    0.30600    0.20500    1.000
    H241     H        0.85740    0.29600    0.21420    1.000
    C314     C        0.91820    0.28440    0.16320    1.000
    H242     H        0.90400    0.26040    0.14450    1.000
    C315     C        0.98750    0.33120    0.17830    1.000
    H243     H        0.02170    0.33970    0.17050    1.000
    C316     C        0.95830    0.35200    0.21920    1.000
    H244     H        0.97240    0.37560    0.23920    1.000
    C317     C        0.73500    0.41030    0.64890    1.000
    H245     H        0.76000    0.39570    0.62600    1.000
    C318     C        0.71140    0.39180    0.69560    1.000
    H246     H        0.72140    0.36400    0.70470    1.000
    C319     C        0.65640    0.44640    0.70660    1.000
    H247     H        0.62590    0.45740    0.72370    1.000
    C320     C        0.67860    0.46740    0.66180    1.000
    H248     H        0.66450    0.49320    0.64870    1.000
    Cd17     Cd       0.86220    0.87438    0.69120    1.000
    Cd18     Cd       0.11457    0.87781    0.16951    1.000
    O49      O        0.86330    0.81321    0.62900    1.000
    O50      O        0.79800    0.81677    0.69060    1.000
    O51      O        0.67880    0.64917    0.61560    1.000
    O52      O        0.66600    0.69920    0.68180    1.000
    O53      O        0.85700    0.71880    0.45850    1.000
    O54      O        0.79690    0.67220    0.45080    1.000
    N41      N        0.90650    0.83944    0.76650    1.000
    N42      N        0.06220    0.84678    0.09860    1.000
    N43      N        0.81180    0.90530    0.61790    1.000
    N44      N        0.67610    0.90851    0.27030    1.000
    N45      N        0.81880    0.70100    0.47760    1.000
    C321     C        0.90290    0.79790    0.77150    1.000
    H249     H        0.87930    0.78330    0.74680    1.000
    C322     C        0.93250    0.77580    0.81140    1.000
    H250     H        0.93080    0.74610    0.81220    1.000
    C323     C        0.96200    0.84020    0.85090    1.000
    H251     H        0.98000    0.85660    0.87970    1.000
    C324     C        0.93200    0.85950    0.80830    1.000
    H252     H        0.92960    0.88920    0.80920    1.000
    C325     C        0.96600    0.79720    0.85180    1.000
    C326     C        0.00040    0.77460    0.89450    1.000
    H253     H        0.03630    0.78450    0.88860    1.000
    C327     C        0.98840    0.77260    0.96310    1.000
    H254     H        0.95060    0.77130    0.96970    1.000
    C328     C        0.01210    0.80220    0.00720    1.000
    C329     C        0.99370    0.80320    0.06630    1.000
    H255     H        0.96320    0.78860    0.07640    1.000
    C330     C        0.01970    0.82540    0.10990    1.000
    H256     H        0.00650    0.82550    0.14980    1.000
    C331     C        0.07920    0.84660    0.04090    1.000
    H257     H        0.10930    0.86190    0.03180    1.000
    C332     C        0.05570    0.82560    0.99490    1.000
    H258     H        0.06900    0.82700    0.95510    1.000
    C333     C        0.83190    0.90820    0.56210    1.000
    H259     H        0.86390    0.89500    0.55500    1.000
    C334     C        0.80950    0.92850    0.51560    1.000
    H260     H        0.82550    0.92920    0.47720    1.000
    C335     C        0.76220    0.94840    0.52470    1.000
    C336     C        0.74020    0.94390    0.58110    1.000
    H261     H        0.70750    0.95570    0.58920    1.000
    C337     C        0.76590    0.92210    0.62540    1.000
    H262     H        0.74980    0.91900    0.66350    1.000
    C338     C        0.73910    0.97710    0.47920    1.000
    H263     H        0.70120    0.97790    0.48470    1.000
    C339     C        0.75190    0.97560    0.41120    1.000
    H264     H        0.78870    0.96770    0.40680    1.000
    C340     C        0.72180    0.95190    0.36540    1.000
    C341     C        0.72000    0.90920    0.36520    1.000
    H265     H        0.73340    0.89380    0.39830    1.000
    C342     C        0.69850    0.88840    0.31670    1.000
    H266     H        0.69960    0.85860    0.31600    1.000
    C343     C        0.67930    0.95120    0.27020    1.000
    H267     H        0.66670    0.96580    0.23600    1.000
    C344     C        0.69960    0.97400    0.31640    1.000
    H268     H        0.69900    0.00370    0.31580    1.000
    C345     C        0.82080    0.80020    0.64780    1.000
    C346     C        0.79740    0.76260    0.61680    1.000
    C347     C        0.75520    0.74230    0.64070    1.000
    H269     H        0.74010    0.75250    0.67680    1.000
    C348     C        0.73470    0.70750    0.61270    1.000
    C349     C        0.68960    0.68410    0.63790    1.000
    C350     C        0.75510    0.69420    0.55790    1.000
    H270     H        0.74050    0.67100    0.53730    1.000
    C351     C        0.79690    0.71500    0.53400    1.000
    C352     C        0.81840    0.74930    0.56280    1.000
    H271     H        0.84700    0.76340    0.54580    1.000
    C353     C        0.89070    0.80600    0.79500    1.000
    H272     H        0.85740    0.79600    0.78580    1.000
    C354     C        0.91820    0.78440    0.83680    1.000
    H273     H        0.90400    0.76040    0.85550    1.000
    C355     C        0.98750    0.83120    0.82170    1.000
    H274     H        0.02170    0.83970    0.82950    1.000
    C356     C        0.95830    0.85200    0.78080    1.000
    H275     H        0.97240    0.87560    0.76080    1.000
    C357     C        0.73500    0.91030    0.35110    1.000
    H276     H        0.76000    0.89570    0.37400    1.000
    C358     C        0.71140    0.89180    0.30440    1.000
    H277     H        0.72140    0.86400    0.29530    1.000
    C359     C        0.65640    0.94640    0.29340    1.000
    H278     H        0.62590    0.95740    0.27630    1.000
    C360     C        0.67860    0.96740    0.33820    1.000
    H279     H        0.66450    0.99320    0.35130    1.000
    Cd19     Cd       0.36220    0.37438    0.69120    1.000
    Cd20     Cd       0.61457    0.37781    0.16951    1.000
    O55      O        0.36330    0.31321    0.62900    1.000
    O56      O        0.29800    0.31677    0.69060    1.000
    O57      O        0.17880    0.14917    0.61560    1.000
    O58      O        0.16600    0.19920    0.68180    1.000
    O59      O        0.35700    0.21880    0.45850    1.000
    O60      O        0.29690    0.17220    0.45080    1.000
    N46      N        0.40650    0.33944    0.76650    1.000
    N47      N        0.56220    0.34678    0.09860    1.000
    N48      N        0.31180    0.40530    0.61790    1.000
    N49      N        0.17610    0.40851    0.27030    1.000
    N50      N        0.31880    0.20100    0.47760    1.000
    C361     C        0.40290    0.29790    0.77150    1.000
    H280     H        0.37930    0.28330    0.74680    1.000
    C362     C        0.43250    0.27580    0.81140    1.000
    H281     H        0.43080    0.24610    0.81220    1.000
    C363     C        0.46200    0.34020    0.85090    1.000
    H282     H        0.48000    0.35660    0.87970    1.000
    C364     C        0.43200    0.35950    0.80830    1.000
    H283     H        0.42960    0.38920    0.80920    1.000
    C365     C        0.46600    0.29720    0.85180    1.000
    C366     C        0.50040    0.27460    0.89450    1.000
    H284     H        0.53630    0.28450    0.88860    1.000
    C367     C        0.48840    0.27260    0.96310    1.000
    H285     H        0.45060    0.27130    0.96970    1.000
    C368     C        0.51210    0.30220    0.00720    1.000
    C369     C        0.49370    0.30320    0.06630    1.000
    H286     H        0.46320    0.28860    0.07640    1.000
    C370     C        0.51970    0.32540    0.10990    1.000
    H287     H        0.50650    0.32550    0.14980    1.000
    C371     C        0.57920    0.34660    0.04090    1.000
    H288     H        0.60930    0.36190    0.03180    1.000
    C372     C        0.55570    0.32560    0.99490    1.000
    H289     H        0.56900    0.32700    0.95510    1.000
    C373     C        0.33190    0.40820    0.56210    1.000
    H290     H        0.36390    0.39500    0.55500    1.000
    C374     C        0.30950    0.42850    0.51560    1.000
    H291     H        0.32550    0.42920    0.47720    1.000
    C375     C        0.26220    0.44840    0.52470    1.000
    C376     C        0.24020    0.44390    0.58110    1.000
    H292     H        0.20750    0.45570    0.58920    1.000
    C377     C        0.26590    0.42210    0.62540    1.000
    H293     H        0.24980    0.41900    0.66350    1.000
    C378     C        0.23910    0.47710    0.47920    1.000
    H294     H        0.20120    0.47790    0.48470    1.000
    C379     C        0.25190    0.47560    0.41120    1.000
    H295     H        0.28870    0.46770    0.40680    1.000
    C380     C        0.22180    0.45190    0.36540    1.000
    C381     C        0.22000    0.40920    0.36520    1.000
    H296     H        0.23340    0.39380    0.39830    1.000
    C382     C        0.19850    0.38840    0.31670    1.000
    H297     H        0.19960    0.35860    0.31600    1.000
    C383     C        0.17930    0.45120    0.27020    1.000
    H298     H        0.16670    0.46580    0.23600    1.000
    C384     C        0.19960    0.47400    0.31640    1.000
    H299     H        0.19900    0.50370    0.31580    1.000
    C385     C        0.32080    0.30020    0.64780    1.000
    C386     C        0.29740    0.26260    0.61680    1.000
    C387     C        0.25520    0.24230    0.64070    1.000
    H300     H        0.24010    0.25250    0.67680    1.000
    C388     C        0.23470    0.20750    0.61270    1.000
    C389     C        0.18960    0.18410    0.63790    1.000
    C390     C        0.25510    0.19420    0.55790    1.000
    H301     H        0.24050    0.17100    0.53730    1.000
    C391     C        0.29690    0.21500    0.53400    1.000
    C392     C        0.31840    0.24930    0.56280    1.000
    H302     H        0.34700    0.26340    0.54580    1.000
    C393     C        0.39070    0.30600    0.79500    1.000
    H303     H        0.35740    0.29600    0.78580    1.000
    C394     C        0.41820    0.28440    0.83680    1.000
    H304     H        0.40400    0.26040    0.85550    1.000
    C395     C        0.48750    0.33120    0.82170    1.000
    H305     H        0.52170    0.33970    0.82950    1.000
    C396     C        0.45830    0.35200    0.78080    1.000
    H306     H        0.47240    0.37560    0.76080    1.000
    C397     C        0.23500    0.41030    0.35110    1.000
    H307     H        0.26000    0.39570    0.37400    1.000
    C398     C        0.21140    0.39180    0.30440    1.000
    H308     H        0.22140    0.36400    0.29530    1.000
    C399     C        0.15640    0.44640    0.29340    1.000
    H309     H        0.12590    0.45740    0.27630    1.000
    C400     C        0.17860    0.46740    0.33820    1.000
    H310     H        0.16450    0.49320    0.35130    1.000
    Cd21     Cd       0.63780    0.12562    0.69120    1.000
    Cd22     Cd       0.38543    0.12219    0.16951    1.000
    O61      O        0.63670    0.18679    0.62900    1.000
    O62      O        0.70200    0.18323    0.69060    1.000
    O63      O        0.82120    0.35083    0.61560    1.000
    O64      O        0.83400    0.30080    0.68180    1.000
    O65      O        0.64300    0.28120    0.45850    1.000
    O66      O        0.70310    0.32780    0.45080    1.000
    N51      N        0.59350    0.16056    0.76650    1.000
    N52      N        0.43780    0.15322    0.09860    1.000
    N53      N        0.68820    0.09470    0.61790    1.000
    N54      N        0.82390    0.09149    0.27030    1.000
    N55      N        0.68120    0.29900    0.47760    1.000
    C401     C        0.59710    0.20210    0.77150    1.000
    H311     H        0.62070    0.21670    0.74680    1.000
    C402     C        0.56750    0.22420    0.81140    1.000
    H312     H        0.56920    0.25390    0.81220    1.000
    C403     C        0.53800    0.15980    0.85090    1.000
    H313     H        0.52000    0.14340    0.87970    1.000
    C404     C        0.56800    0.14050    0.80830    1.000
    H314     H        0.57040    0.11080    0.80920    1.000
    C405     C        0.53400    0.20280    0.85180    1.000
    C406     C        0.49960    0.22540    0.89450    1.000
    H315     H        0.46370    0.21550    0.88860    1.000
    C407     C        0.51160    0.22740    0.96310    1.000
    H316     H        0.54940    0.22870    0.96970    1.000
    C408     C        0.48790    0.19780    0.00720    1.000
    C409     C        0.50630    0.19680    0.06630    1.000
    H317     H        0.53680    0.21140    0.07640    1.000
    C410     C        0.48030    0.17460    0.10990    1.000
    H318     H        0.49350    0.17450    0.14980    1.000
    C411     C        0.42080    0.15340    0.04090    1.000
    H319     H        0.39070    0.13810    0.03180    1.000
    C412     C        0.44430    0.17440    0.99490    1.000
    H320     H        0.43100    0.17300    0.95510    1.000
    C413     C        0.66810    0.09180    0.56210    1.000
    H321     H        0.63610    0.10500    0.55500    1.000
    C414     C        0.69050    0.07150    0.51560    1.000
    H322     H        0.67450    0.07080    0.47720    1.000
    C415     C        0.73780    0.05160    0.52470    1.000
    C416     C        0.75980    0.05610    0.58110    1.000
    H323     H        0.79250    0.04430    0.58920    1.000
    C417     C        0.73410    0.07790    0.62540    1.000
    H324     H        0.75020    0.08100    0.66350    1.000
    C418     C        0.76090    0.02290    0.47920    1.000
    H325     H        0.79880    0.02210    0.48470    1.000
    C419     C        0.74810    0.02440    0.41120    1.000
    H326     H        0.71130    0.03230    0.40680    1.000
    C420     C        0.77820    0.04810    0.36540    1.000
    C421     C        0.78000    0.09080    0.36520    1.000
    H327     H        0.76660    0.10620    0.39830    1.000
    C422     C        0.80150    0.11160    0.31670    1.000
    H328     H        0.80040    0.14140    0.31600    1.000
    C423     C        0.82070    0.04880    0.27020    1.000
    H329     H        0.83330    0.03420    0.23600    1.000
    C424     C        0.80040    0.02600    0.31640    1.000
    H330     H        0.80100    0.99630    0.31580    1.000
    C425     C        0.67920    0.19980    0.64780    1.000
    C426     C        0.70260    0.23740    0.61680    1.000
    C427     C        0.74480    0.25770    0.64070    1.000
    H331     H        0.75990    0.24750    0.67680    1.000
    C428     C        0.76530    0.29250    0.61270    1.000
    C429     C        0.81040    0.31590    0.63790    1.000
    C430     C        0.74490    0.30580    0.55790    1.000
    H332     H        0.75950    0.32900    0.53730    1.000
    C431     C        0.70310    0.28500    0.53400    1.000
    C432     C        0.68160    0.25070    0.56280    1.000
    H333     H        0.65300    0.23660    0.54580    1.000
    C433     C        0.60930    0.19400    0.79500    1.000
    H334     H        0.64260    0.20400    0.78580    1.000
    C434     C        0.58180    0.21560    0.83680    1.000
    H335     H        0.59600    0.23960    0.85550    1.000
    C435     C        0.51250    0.16880    0.82170    1.000
    H336     H        0.47830    0.16030    0.82950    1.000
    C436     C        0.54170    0.14800    0.78080    1.000
    H337     H        0.52760    0.12440    0.76080    1.000
    C437     C        0.76500    0.08970    0.35110    1.000
    H338     H        0.74000    0.10430    0.37400    1.000
    C438     C        0.78860    0.10820    0.30440    1.000
    H339     H        0.77860    0.13600    0.29530    1.000
    C439     C        0.84360    0.05360    0.29340    1.000
    H340     H        0.87410    0.04260    0.27630    1.000
    C440     C        0.82140    0.03260    0.33820    1.000
    H341     H        0.83550    0.00680    0.35130    1.000
    Cd23     Cd       0.13780    0.62562    0.69120    1.000
    Cd24     Cd       0.88543    0.62219    0.16951    1.000
    O67      O        0.13670    0.68679    0.62900    1.000
    O68      O        0.20200    0.68323    0.69060    1.000
    O69      O        0.32120    0.85083    0.61560    1.000
    O70      O        0.33400    0.80080    0.68180    1.000
    O71      O        0.14300    0.78120    0.45850    1.000
    O72      O        0.20310    0.82780    0.45080    1.000
    N56      N        0.09350    0.66056    0.76650    1.000
    N57      N        0.93780    0.65322    0.09860    1.000
    N58      N        0.18820    0.59470    0.61790    1.000
    N59      N        0.32390    0.59149    0.27030    1.000
    N60      N        0.18120    0.79900    0.47760    1.000
    C441     C        0.09710    0.70210    0.77150    1.000
    H342     H        0.12070    0.71670    0.74680    1.000
    C442     C        0.06750    0.72420    0.81140    1.000
    H343     H        0.06920    0.75390    0.81220    1.000
    C443     C        0.03800    0.65980    0.85090    1.000
    H344     H        0.02000    0.64340    0.87970    1.000
    C444     C        0.06800    0.64050    0.80830    1.000
    H345     H        0.07040    0.61080    0.80920    1.000
    C445     C        0.03400    0.70280    0.85180    1.000
    C446     C        0.99960    0.72540    0.89450    1.000
    H346     H        0.96370    0.71550    0.88860    1.000
    C447     C        0.01160    0.72740    0.96310    1.000
    H347     H        0.04940    0.72870    0.96970    1.000
    C448     C        0.98790    0.69780    0.00720    1.000
    C449     C        0.00630    0.69680    0.06630    1.000
    H348     H        0.03680    0.71140    0.07640    1.000
    C450     C        0.98030    0.67460    0.10990    1.000
    H349     H        0.99350    0.67450    0.14980    1.000
    C451     C        0.92080    0.65340    0.04090    1.000
    H350     H        0.89070    0.63810    0.03180    1.000
    C452     C        0.94430    0.67440    0.99490    1.000
    H351     H        0.93100    0.67300    0.95510    1.000
    C453     C        0.16810    0.59180    0.56210    1.000
    H352     H        0.13610    0.60500    0.55500    1.000
    C454     C        0.19050    0.57150    0.51560    1.000
    H353     H        0.17450    0.57080    0.47720    1.000
    C455     C        0.23780    0.55160    0.52470    1.000
    C456     C        0.25980    0.55610    0.58110    1.000
    H354     H        0.29250    0.54430    0.58920    1.000
    C457     C        0.23410    0.57790    0.62540    1.000
    H355     H        0.25020    0.58100    0.66350    1.000
    C458     C        0.26090    0.52290    0.47920    1.000
    H356     H        0.29880    0.52210    0.48470    1.000
    C459     C        0.24810    0.52440    0.41120    1.000
    H357     H        0.21130    0.53230    0.40680    1.000
    C460     C        0.27820    0.54810    0.36540    1.000
    C461     C        0.28000    0.59080    0.36520    1.000
    H358     H        0.26660    0.60620    0.39830    1.000
    C462     C        0.30150    0.61160    0.31670    1.000
    H359     H        0.30040    0.64140    0.31600    1.000
    C463     C        0.32070    0.54880    0.27020    1.000
    H360     H        0.33330    0.53420    0.23600    1.000
    C464     C        0.30040    0.52600    0.31640    1.000
    H361     H        0.30100    0.49630    0.31580    1.000
    C465     C        0.17920    0.69980    0.64780    1.000
    C466     C        0.20260    0.73740    0.61680    1.000
    C467     C        0.24480    0.75770    0.64070    1.000
    H362     H        0.25990    0.74750    0.67680    1.000
    C468     C        0.26530    0.79250    0.61270    1.000
    C469     C        0.31040    0.81590    0.63790    1.000
    C470     C        0.24490    0.80580    0.55790    1.000
    H363     H        0.25950    0.82900    0.53730    1.000
    C471     C        0.20310    0.78500    0.53400    1.000
    C472     C        0.18160    0.75070    0.56280    1.000
    H364     H        0.15300    0.73660    0.54580    1.000
    C473     C        0.10930    0.69400    0.79500    1.000
    H365     H        0.14260    0.70400    0.78580    1.000
    C474     C        0.08180    0.71560    0.83680    1.000
    H366     H        0.09600    0.73960    0.85550    1.000
    C475     C        0.01250    0.66880    0.82170    1.000
    H367     H        0.97830    0.66030    0.82950    1.000
    C476     C        0.04170    0.64800    0.78080    1.000
    H368     H        0.02760    0.62440    0.76080    1.000
    C477     C        0.26500    0.58970    0.35110    1.000
    H369     H        0.24000    0.60430    0.37400    1.000
    C478     C        0.28860    0.60820    0.30440    1.000
    H370     H        0.27860    0.63600    0.29530    1.000
    C479     C        0.34360    0.55360    0.29340    1.000
    H371     H        0.37410    0.54260    0.27630    1.000
    C480     C        0.32140    0.53260    0.33820    1.000
    H372     H        0.33550    0.50680    0.35130    1.000
    Cd25     Cd       0.86220    0.12562    0.19120    1.000
    Cd26     Cd       0.11457    0.12219    0.66951    1.000
    O73      O        0.86330    0.18679    0.12900    1.000
    O74      O        0.79800    0.18323    0.19060    1.000
    O75      O        0.67880    0.35083    0.11560    1.000
    O76      O        0.66600    0.30080    0.18180    1.000
    O77      O        0.85700    0.28120    0.95850    1.000
    O78      O        0.79690    0.32780    0.95080    1.000
    N61      N        0.90650    0.16056    0.26650    1.000
    N62      N        0.06220    0.15322    0.59860    1.000
    N63      N        0.81180    0.09470    0.11790    1.000
    N64      N        0.67610    0.09149    0.77030    1.000
    N65      N        0.81880    0.29900    0.97760    1.000
    C481     C        0.90290    0.20210    0.27150    1.000
    H373     H        0.87930    0.21670    0.24680    1.000
    C482     C        0.93250    0.22420    0.31140    1.000
    H374     H        0.93080    0.25390    0.31220    1.000
    C483     C        0.96200    0.15980    0.35090    1.000
    H375     H        0.98000    0.14340    0.37970    1.000
    C484     C        0.93200    0.14050    0.30830    1.000
    H376     H        0.92960    0.11080    0.30920    1.000
    C485     C        0.96600    0.20280    0.35180    1.000
    C486     C        0.00040    0.22540    0.39450    1.000
    H377     H        0.03630    0.21550    0.38860    1.000
    C487     C        0.98840    0.22740    0.46310    1.000
    H378     H        0.95060    0.22870    0.46970    1.000
    C488     C        0.01210    0.19780    0.50720    1.000
    C489     C        0.99370    0.19680    0.56630    1.000
    H379     H        0.96320    0.21140    0.57640    1.000
    C490     C        0.01970    0.17460    0.60990    1.000
    H380     H        0.00650    0.17450    0.64980    1.000
    C491     C        0.07920    0.15340    0.54090    1.000
    H381     H        0.10930    0.13810    0.53180    1.000
    C492     C        0.05570    0.17440    0.49490    1.000
    H382     H        0.06900    0.17300    0.45510    1.000
    C493     C        0.83190    0.09180    0.06210    1.000
    H383     H        0.86390    0.10500    0.05500    1.000
    C494     C        0.80950    0.07150    0.01560    1.000
    H384     H        0.82550    0.07080    0.97720    1.000
    C495     C        0.76220    0.05160    0.02470    1.000
    C496     C        0.74020    0.05610    0.08110    1.000
    H385     H        0.70750    0.04430    0.08920    1.000
    C497     C        0.76590    0.07790    0.12540    1.000
    H386     H        0.74980    0.08100    0.16350    1.000
    C498     C        0.73910    0.02290    0.97920    1.000
    H387     H        0.70120    0.02210    0.98470    1.000
    C499     C        0.75190    0.02440    0.91120    1.000
    H388     H        0.78870    0.03230    0.90680    1.000
    C500     C        0.72180    0.04810    0.86540    1.000
    C501     C        0.72000    0.09080    0.86520    1.000
    H389     H        0.73340    0.10620    0.89830    1.000
    C502     C        0.69850    0.11160    0.81670    1.000
    H390     H        0.69960    0.14140    0.81600    1.000
    C503     C        0.67930    0.04880    0.77020    1.000
    H391     H        0.66670    0.03420    0.73600    1.000
    C504     C        0.69960    0.02600    0.81640    1.000
    H392     H        0.69900    0.99630    0.81580    1.000
    C505     C        0.82080    0.19980    0.14780    1.000
    C506     C        0.79740    0.23740    0.11680    1.000
    C507     C        0.75520    0.25770    0.14070    1.000
    H393     H        0.74010    0.24750    0.17680    1.000
    C508     C        0.73470    0.29250    0.11270    1.000
    C509     C        0.68960    0.31590    0.13790    1.000
    C510     C        0.75510    0.30580    0.05790    1.000
    H394     H        0.74050    0.32900    0.03730    1.000
    C511     C        0.79690    0.28500    0.03400    1.000
    C512     C        0.81840    0.25070    0.06280    1.000
    H395     H        0.84700    0.23660    0.04580    1.000
    C513     C        0.89070    0.19400    0.29500    1.000
    H396     H        0.85740    0.20400    0.28580    1.000
    C514     C        0.91820    0.21560    0.33680    1.000
    H397     H        0.90400    0.23960    0.35550    1.000
    C515     C        0.98750    0.16880    0.32170    1.000
    H398     H        0.02170    0.16030    0.32950    1.000
    C516     C        0.95830    0.14800    0.28080    1.000
    H399     H        0.97240    0.12440    0.26080    1.000
    C517     C        0.73500    0.08970    0.85110    1.000
    H400     H        0.76000    0.10430    0.87400    1.000
    C518     C        0.71140    0.10820    0.80440    1.000
    H401     H        0.72140    0.13600    0.79530    1.000
    C519     C        0.65640    0.05360    0.79340    1.000
    H402     H        0.62590    0.04260    0.77630    1.000
    C520     C        0.67860    0.03260    0.83820    1.000
    H403     H        0.66450    0.00680    0.85130    1.000
    Cd27     Cd       0.36220    0.62562    0.19120    1.000
    Cd28     Cd       0.61457    0.62219    0.66951    1.000
    O79      O        0.36330    0.68679    0.12900    1.000
    O80      O        0.29800    0.68323    0.19060    1.000
    O81      O        0.17880    0.85083    0.11560    1.000
    O82      O        0.16600    0.80080    0.18180    1.000
    O83      O        0.35700    0.78120    0.95850    1.000
    O84      O        0.29690    0.82780    0.95080    1.000
    N66      N        0.40650    0.66056    0.26650    1.000
    N67      N        0.56220    0.65322    0.59860    1.000
    N68      N        0.31180    0.59470    0.11790    1.000
    N69      N        0.17610    0.59149    0.77030    1.000
    N70      N        0.31880    0.79900    0.97760    1.000
    C521     C        0.40290    0.70210    0.27150    1.000
    H404     H        0.37930    0.71670    0.24680    1.000
    C522     C        0.43250    0.72420    0.31140    1.000
    H405     H        0.43080    0.75390    0.31220    1.000
    C523     C        0.46200    0.65980    0.35090    1.000
    H406     H        0.48000    0.64340    0.37970    1.000
    C524     C        0.43200    0.64050    0.30830    1.000
    H407     H        0.42960    0.61080    0.30920    1.000
    C525     C        0.46600    0.70280    0.35180    1.000
    C526     C        0.50040    0.72540    0.39450    1.000
    H408     H        0.53630    0.71550    0.38860    1.000
    C527     C        0.48840    0.72740    0.46310    1.000
    H409     H        0.45060    0.72870    0.46970    1.000
    C528     C        0.51210    0.69780    0.50720    1.000
    C529     C        0.49370    0.69680    0.56630    1.000
    H410     H        0.46320    0.71140    0.57640    1.000
    C530     C        0.51970    0.67460    0.60990    1.000
    H411     H        0.50650    0.67450    0.64980    1.000
    C531     C        0.57920    0.65340    0.54090    1.000
    H412     H        0.60930    0.63810    0.53180    1.000
    C532     C        0.55570    0.67440    0.49490    1.000
    H413     H        0.56900    0.67300    0.45510    1.000
    C533     C        0.33190    0.59180    0.06210    1.000
    H414     H        0.36390    0.60500    0.05500    1.000
    C534     C        0.30950    0.57150    0.01560    1.000
    H415     H        0.32550    0.57080    0.97720    1.000
    C535     C        0.26220    0.55160    0.02470    1.000
    C536     C        0.24020    0.55610    0.08110    1.000
    H416     H        0.20750    0.54430    0.08920    1.000
    C537     C        0.26590    0.57790    0.12540    1.000
    H417     H        0.24980    0.58100    0.16350    1.000
    C538     C        0.23910    0.52290    0.97920    1.000
    H418     H        0.20120    0.52210    0.98470    1.000
    C539     C        0.25190    0.52440    0.91120    1.000
    H419     H        0.28870    0.53230    0.90680    1.000
    C540     C        0.22180    0.54810    0.86540    1.000
    C541     C        0.22000    0.59080    0.86520    1.000
    H420     H        0.23340    0.60620    0.89830    1.000
    C542     C        0.19850    0.61160    0.81670    1.000
    H421     H        0.19960    0.64140    0.81600    1.000
    C543     C        0.17930    0.54880    0.77020    1.000
    H422     H        0.16670    0.53420    0.73600    1.000
    C544     C        0.19960    0.52600    0.81640    1.000
    H423     H        0.19900    0.49630    0.81580    1.000
    C545     C        0.32080    0.69980    0.14780    1.000
    C546     C        0.29740    0.73740    0.11680    1.000
    C547     C        0.25520    0.75770    0.14070    1.000
    H424     H        0.24010    0.74750    0.17680    1.000
    C548     C        0.23470    0.79250    0.11270    1.000
    C549     C        0.18960    0.81590    0.13790    1.000
    C550     C        0.25510    0.80580    0.05790    1.000
    H425     H        0.24050    0.82900    0.03730    1.000
    C551     C        0.29690    0.78500    0.03400    1.000
    C552     C        0.31840    0.75070    0.06280    1.000
    H426     H        0.34700    0.73660    0.04580    1.000
    C553     C        0.39070    0.69400    0.29500    1.000
    H427     H        0.35740    0.70400    0.28580    1.000
    C554     C        0.41820    0.71560    0.33680    1.000
    H428     H        0.40400    0.73960    0.35550    1.000
    C555     C        0.48750    0.66880    0.32170    1.000
    H429     H        0.52170    0.66030    0.32950    1.000
    C556     C        0.45830    0.64800    0.28080    1.000
    H430     H        0.47240    0.62440    0.26080    1.000
    C557     C        0.23500    0.58970    0.85110    1.000
    H431     H        0.26000    0.60430    0.87400    1.000
    C558     C        0.21140    0.60820    0.80440    1.000
    H432     H        0.22140    0.63600    0.79530    1.000
    C559     C        0.15640    0.55360    0.79340    1.000
    H433     H        0.12590    0.54260    0.77630    1.000
    C560     C        0.17860    0.53260    0.83820    1.000
    H434     H        0.16450    0.50680    0.85130    1.000
    Cd29     Cd       0.63780    0.87438    0.19120    1.000
    Cd30     Cd       0.38543    0.87781    0.66951    1.000
    O85      O        0.63670    0.81321    0.12900    1.000
    O86      O        0.70200    0.81677    0.19060    1.000
    O87      O        0.82120    0.64917    0.11560    1.000
    O88      O        0.83400    0.69920    0.18180    1.000
    O89      O        0.64300    0.71880    0.95850    1.000
    O90      O        0.70310    0.67220    0.95080    1.000
    N71      N        0.59350    0.83944    0.26650    1.000
    N72      N        0.43780    0.84678    0.59860    1.000
    N73      N        0.68820    0.90530    0.11790    1.000
    N74      N        0.82390    0.90851    0.77030    1.000
    N75      N        0.68120    0.70100    0.97760    1.000
    C561     C        0.59710    0.79790    0.27150    1.000
    H435     H        0.62070    0.78330    0.24680    1.000
    C562     C        0.56750    0.77580    0.31140    1.000
    H436     H        0.56920    0.74610    0.31220    1.000
    C563     C        0.53800    0.84020    0.35090    1.000
    H437     H        0.52000    0.85660    0.37970    1.000
    C564     C        0.56800    0.85950    0.30830    1.000
    H438     H        0.57040    0.88920    0.30920    1.000
    C565     C        0.53400    0.79720    0.35180    1.000
    C566     C        0.49960    0.77460    0.39450    1.000
    H439     H        0.46370    0.78450    0.38860    1.000
    C567     C        0.51160    0.77260    0.46310    1.000
    H440     H        0.54940    0.77130    0.46970    1.000
    C568     C        0.48790    0.80220    0.50720    1.000
    C569     C        0.50630    0.80320    0.56630    1.000
    H441     H        0.53680    0.78860    0.57640    1.000
    C570     C        0.48030    0.82540    0.60990    1.000
    H442     H        0.49350    0.82550    0.64980    1.000
    C571     C        0.42080    0.84660    0.54090    1.000
    H443     H        0.39070    0.86190    0.53180    1.000
    C572     C        0.44430    0.82560    0.49490    1.000
    H444     H        0.43100    0.82700    0.45510    1.000
    C573     C        0.66810    0.90820    0.06210    1.000
    H445     H        0.63610    0.89500    0.05500    1.000
    C574     C        0.69050    0.92850    0.01560    1.000
    H446     H        0.67450    0.92920    0.97720    1.000
    C575     C        0.73780    0.94840    0.02470    1.000
    C576     C        0.75980    0.94390    0.08110    1.000
    H447     H        0.79250    0.95570    0.08920    1.000
    C577     C        0.73410    0.92210    0.12540    1.000
    H448     H        0.75020    0.91900    0.16350    1.000
    C578     C        0.76090    0.97710    0.97920    1.000
    H449     H        0.79880    0.97790    0.98470    1.000
    C579     C        0.74810    0.97560    0.91120    1.000
    H450     H        0.71130    0.96770    0.90680    1.000
    C580     C        0.77820    0.95190    0.86540    1.000
    C581     C        0.78000    0.90920    0.86520    1.000
    H451     H        0.76660    0.89380    0.89830    1.000
    C582     C        0.80150    0.88840    0.81670    1.000
    H452     H        0.80040    0.85860    0.81600    1.000
    C583     C        0.82070    0.95120    0.77020    1.000
    H453     H        0.83330    0.96580    0.73600    1.000
    C584     C        0.80040    0.97400    0.81640    1.000
    H454     H        0.80100    0.00370    0.81580    1.000
    C585     C        0.67920    0.80020    0.14780    1.000
    C586     C        0.70260    0.76260    0.11680    1.000
    C587     C        0.74480    0.74230    0.14070    1.000
    H455     H        0.75990    0.75250    0.17680    1.000
    C588     C        0.76530    0.70750    0.11270    1.000
    C589     C        0.81040    0.68410    0.13790    1.000
    C590     C        0.74490    0.69420    0.05790    1.000
    H456     H        0.75950    0.67100    0.03730    1.000
    C591     C        0.70310    0.71500    0.03400    1.000
    C592     C        0.68160    0.74930    0.06280    1.000
    H457     H        0.65300    0.76340    0.04580    1.000
    C593     C        0.60930    0.80600    0.29500    1.000
    H458     H        0.64260    0.79600    0.28580    1.000
    C594     C        0.58180    0.78440    0.33680    1.000
    H459     H        0.59600    0.76040    0.35550    1.000
    C595     C        0.51250    0.83120    0.32170    1.000
    H460     H        0.47830    0.83970    0.32950    1.000
    C596     C        0.54170    0.85200    0.28080    1.000
    H461     H        0.52760    0.87560    0.26080    1.000
    C597     C        0.76500    0.91030    0.85110    1.000
    H462     H        0.74000    0.89570    0.87400    1.000
    C598     C        0.78860    0.89180    0.80440    1.000
    H463     H        0.77860    0.86400    0.79530    1.000
    C599     C        0.84360    0.94640    0.79340    1.000
    H464     H        0.87410    0.95740    0.77630    1.000
    C600     C        0.82140    0.96740    0.83820    1.000
    H465     H        0.83550    0.99320    0.85130    1.000
    Cd31     Cd       0.13780    0.37438    0.19120    1.000
    Cd32     Cd       0.88543    0.37781    0.66951    1.000
    O91      O        0.13670    0.31321    0.12900    1.000
    O92      O        0.20200    0.31677    0.19060    1.000
    O93      O        0.32120    0.14917    0.11560    1.000
    O94      O        0.33400    0.19920    0.18180    1.000
    O95      O        0.14300    0.21880    0.95850    1.000
    O96      O        0.20310    0.17220    0.95080    1.000
    N76      N        0.09350    0.33944    0.26650    1.000
    N77      N        0.93780    0.34678    0.59860    1.000
    N78      N        0.18820    0.40530    0.11790    1.000
    N79      N        0.32390    0.40851    0.77030    1.000
    N80      N        0.18120    0.20100    0.97760    1.000
    C601     C        0.09710    0.29790    0.27150    1.000
    H466     H        0.12070    0.28330    0.24680    1.000
    C602     C        0.06750    0.27580    0.31140    1.000
    H467     H        0.06920    0.24610    0.31220    1.000
    C603     C        0.03800    0.34020    0.35090    1.000
    H468     H        0.02000    0.35660    0.37970    1.000
    C604     C        0.06800    0.35950    0.30830    1.000
    H469     H        0.07040    0.38920    0.30920    1.000
    C605     C        0.03400    0.29720    0.35180    1.000
    C606     C        0.99960    0.27460    0.39450    1.000
    H470     H        0.96370    0.28450    0.38860    1.000
    C607     C        0.01160    0.27260    0.46310    1.000
    H471     H        0.04940    0.27130    0.46970    1.000
    C608     C        0.98790    0.30220    0.50720    1.000
    C609     C        0.00630    0.30320    0.56630    1.000
    H472     H        0.03680    0.28860    0.57640    1.000
    C610     C        0.98030    0.32540    0.60990    1.000
    H473     H        0.99350    0.32550    0.64980    1.000
    C611     C        0.92080    0.34660    0.54090    1.000
    H474     H        0.89070    0.36190    0.53180    1.000
    C612     C        0.94430    0.32560    0.49490    1.000
    H475     H        0.93100    0.32700    0.45510    1.000
    C613     C        0.16810    0.40820    0.06210    1.000
    H476     H        0.13610    0.39500    0.05500    1.000
    C614     C        0.19050    0.42850    0.01560    1.000
    H477     H        0.17450    0.42920    0.97720    1.000
    C615     C        0.23780    0.44840    0.02470    1.000
    C616     C        0.25980    0.44390    0.08110    1.000
    H478     H        0.29250    0.45570    0.08920    1.000
    C617     C        0.23410    0.42210    0.12540    1.000
    H479     H        0.25020    0.41900    0.16350    1.000
    C618     C        0.26090    0.47710    0.97920    1.000
    H480     H        0.29880    0.47790    0.98470    1.000
    C619     C        0.24810    0.47560    0.91120    1.000
    H481     H        0.21130    0.46770    0.90680    1.000
    C620     C        0.27820    0.45190    0.86540    1.000
    C621     C        0.28000    0.40920    0.86520    1.000
    H482     H        0.26660    0.39380    0.89830    1.000
    C622     C        0.30150    0.38840    0.81670    1.000
    H483     H        0.30040    0.35860    0.81600    1.000
    C623     C        0.32070    0.45120    0.77020    1.000
    H484     H        0.33330    0.46580    0.73600    1.000
    C624     C        0.30040    0.47400    0.81640    1.000
    H485     H        0.30100    0.50370    0.81580    1.000
    C625     C        0.17920    0.30020    0.14780    1.000
    C626     C        0.20260    0.26260    0.11680    1.000
    C627     C        0.24480    0.24230    0.14070    1.000
    H486     H        0.25990    0.25250    0.17680    1.000
    C628     C        0.26530    0.20750    0.11270    1.000
    C629     C        0.31040    0.18410    0.13790    1.000
    C630     C        0.24490    0.19420    0.05790    1.000
    H487     H        0.25950    0.17100    0.03730    1.000
    C631     C        0.20310    0.21500    0.03400    1.000
    C632     C        0.18160    0.24930    0.06280    1.000
    H488     H        0.15300    0.26340    0.04580    1.000
    C633     C        0.10930    0.30600    0.29500    1.000
    H489     H        0.14260    0.29600    0.28580    1.000
    C634     C        0.08180    0.28440    0.33680    1.000
    H490     H        0.09600    0.26040    0.35550    1.000
    C635     C        0.01250    0.33120    0.32170    1.000
    H491     H        0.97830    0.33970    0.32950    1.000
    C636     C        0.04170    0.35200    0.28080    1.000
    H492     H        0.02760    0.37560    0.26080    1.000
    C637     C        0.26500    0.41030    0.85110    1.000
    H493     H        0.24000    0.39570    0.87400    1.000
    C638     C        0.28860    0.39180    0.80440    1.000
    H494     H        0.27860    0.36400    0.79530    1.000
    C639     C        0.34360    0.44640    0.79340    1.000
    H495     H        0.37410    0.45740    0.77630    1.000
    C640     C        0.32140    0.46740    0.83820    1.000
    H496     H        0.33550    0.49320    0.85130    1.000
