# CIF file generated by openbabel 3.1.0, see https://openbabel.org
data_I
_chemical_name_common 'image0'
_cell_length_a 30.0058
_cell_length_b 21.244
_cell_length_c 19.5943
_cell_angle_alpha 90
_cell_angle_beta 93.87
_cell_angle_gamma 90
_space_group_name_H-M_alt 'P 1'
_space_group_name_Hall 'P 1'
loop_
    _symmetry_equiv_pos_as_xyz
    x,y,z
loop_
    _atom_site_label
    _atom_site_type_symbol
    _atom_site_fract_x
    _atom_site_fract_y
    _atom_site_fract_z
    _atom_site_occupancy
    Eu1      Eu       0.27613    0.32595    0.55802    1.000
    Eu2      Eu       0.18083    0.66840    0.46243    1.000
    O1       O        0.34049    0.40041    0.57124    1.000
    O2       O        0.27989    0.43302    0.51310    1.000
    O3       O        0.25759    0.66123    0.46820    1.000
    O4       O        0.31048    0.72921    0.50137    1.000
    O5       O        0.68809    0.69071    0.54580    1.000
    O6       O        0.73066    0.75402    0.61376    1.000
    O7       O        0.62718    0.77708    0.87995    1.000
    O8       O        0.69523    0.79229    0.85019    1.000
    O9       O        0.19191    0.55250    0.47050    1.000
    O10      O        0.14595    0.58710    0.39120    1.000
    O11      O        0.21528    0.31292    0.47877    1.000
    O12      O        0.17000    0.25485    0.41133    1.000
    C1       C        0.31781    0.44379    0.54290    1.000
    C2       C        0.33480    0.50957    0.54630    1.000
    C3       C        0.37658    0.52240    0.57740    1.000
    H1       H        0.39410    0.48970    0.59580    1.000
    C4       C        0.39266    0.58452    0.58140    1.000
    C5       C        0.36550    0.63320    0.55510    1.000
    H2       H        0.37570    0.67450    0.55840    1.000
    C6       C        0.32326    0.62076    0.52380    1.000
    C7       C        0.30815    0.55934    0.51940    1.000
    H3       H        0.28010    0.55080    0.49850    1.000
    C8       C        0.29536    0.67400    0.49530    1.000
    C9       C        0.43582    0.59870    0.61280    1.000
    C10      C        0.47188    0.61540    0.63620    1.000
    C11      C        0.51346    0.63580    0.65900    1.000
    C12      C        0.54996    0.65630    0.67800    1.000
    C13      C        0.59235    0.68440    0.69350    1.000
    C14      C        0.62326    0.68660    0.64170    1.000
    H4       H        0.61620    0.66800    0.59940    1.000
    C15      C        0.66425    0.71690    0.65480    1.000
    C16      C        0.67461    0.74380    0.71820    1.000
    H5       H        0.70230    0.76270    0.72710    1.000
    C17      C        0.64395    0.74300    0.76950    1.000
    C18      C        0.60305    0.71300    0.75640    1.000
    H6       H        0.58260    0.71200    0.79010    1.000
    C19      C        0.69692    0.72052    0.60100    1.000
    C20      C        0.65595    0.77270    0.83680    1.000
    C21      C        0.16253    0.54250    0.42460    1.000
    C22      C        0.14819    0.47720    0.40620    1.000
    C23      C        0.17220    0.42470    0.43020    1.000
    H7       H        0.19850    0.42970    0.45760    1.000
    C24      C        0.15674    0.36443    0.41310    1.000
    C25      C        0.11744    0.35644    0.37230    1.000
    H8       H        0.10720    0.31620    0.36100    1.000
    C26      C        0.09345    0.40920    0.34860    1.000
    C27      C        0.10920    0.47010    0.36480    1.000
    H9       H        0.09360    0.50530    0.34790    1.000
    C28      C        0.18223    0.30660    0.43660    1.000
    C29      C        0.05330    0.40270    0.30420    1.000
    C30      C        0.01967    0.40040    0.27040    1.000
    Eu3      Eu       0.77613    0.82595    0.55802    1.000
    Eu4      Eu       0.68083    0.16840    0.46243    1.000
    O13      O        0.84049    0.90041    0.57124    1.000
    O14      O        0.77989    0.93302    0.51310    1.000
    O15      O        0.75759    0.16123    0.46820    1.000
    O16      O        0.81048    0.22921    0.50137    1.000
    O17      O        0.18809    0.19071    0.54580    1.000
    O18      O        0.23066    0.25402    0.61376    1.000
    O19      O        0.12718    0.27708    0.87995    1.000
    O20      O        0.19523    0.29229    0.85019    1.000
    O21      O        0.69191    0.05250    0.47050    1.000
    O22      O        0.64595    0.08710    0.39120    1.000
    O23      O        0.71528    0.81292    0.47877    1.000
    O24      O        0.67000    0.75485    0.41133    1.000
    C31      C        0.81781    0.94379    0.54290    1.000
    C32      C        0.83480    0.00957    0.54630    1.000
    C33      C        0.87658    0.02240    0.57740    1.000
    H10      H        0.89410    0.98970    0.59580    1.000
    C34      C        0.89266    0.08452    0.58140    1.000
    C35      C        0.86550    0.13320    0.55510    1.000
    H11      H        0.87570    0.17450    0.55840    1.000
    C36      C        0.82326    0.12076    0.52380    1.000
    C37      C        0.80815    0.05934    0.51940    1.000
    H12      H        0.78010    0.05080    0.49850    1.000
    C38      C        0.79536    0.17400    0.49530    1.000
    C39      C        0.93582    0.09870    0.61280    1.000
    C40      C        0.97188    0.11540    0.63620    1.000
    C41      C        0.01346    0.13580    0.65900    1.000
    C42      C        0.04996    0.15630    0.67800    1.000
    C43      C        0.09235    0.18440    0.69350    1.000
    C44      C        0.12326    0.18660    0.64170    1.000
    H13      H        0.11620    0.16800    0.59940    1.000
    C45      C        0.16425    0.21690    0.65480    1.000
    C46      C        0.17461    0.24380    0.71820    1.000
    H14      H        0.20230    0.26270    0.72710    1.000
    C47      C        0.14395    0.24300    0.76950    1.000
    C48      C        0.10305    0.21300    0.75640    1.000
    H15      H        0.08260    0.21200    0.79010    1.000
    C49      C        0.19692    0.22052    0.60100    1.000
    C50      C        0.15595    0.27270    0.83680    1.000
    C51      C        0.66253    0.04250    0.42460    1.000
    C52      C        0.64819    0.97720    0.40620    1.000
    C53      C        0.67220    0.92470    0.43020    1.000
    H16      H        0.69850    0.92970    0.45760    1.000
    C54      C        0.65674    0.86443    0.41310    1.000
    C55      C        0.61744    0.85644    0.37230    1.000
    H17      H        0.60720    0.81620    0.36100    1.000
    C56      C        0.59345    0.90920    0.34860    1.000
    C57      C        0.60920    0.97010    0.36480    1.000
    H18      H        0.59360    0.00530    0.34790    1.000
    C58      C        0.68223    0.80660    0.43660    1.000
    C59      C        0.55330    0.90270    0.30420    1.000
    C60      C        0.51967    0.90040    0.27040    1.000
    Eu5      Eu       0.72387    0.32595    0.94198    1.000
    Eu6      Eu       0.81917    0.66840    0.03757    1.000
    O25      O        0.65951    0.40041    0.92876    1.000
    O26      O        0.72011    0.43302    0.98690    1.000
    O27      O        0.74241    0.66123    0.03180    1.000
    O28      O        0.68952    0.72921    0.99863    1.000
    O29      O        0.31191    0.69071    0.95420    1.000
    O30      O        0.26934    0.75402    0.88624    1.000
    O31      O        0.37282    0.77708    0.62005    1.000
    O32      O        0.30477    0.79229    0.64981    1.000
    O33      O        0.80809    0.55250    0.02950    1.000
    O34      O        0.85405    0.58710    0.10880    1.000
    O35      O        0.78472    0.31292    0.02123    1.000
    O36      O        0.83000    0.25485    0.08867    1.000
    C61      C        0.68219    0.44379    0.95710    1.000
    C62      C        0.66520    0.50957    0.95370    1.000
    C63      C        0.62342    0.52240    0.92260    1.000
    H19      H        0.60590    0.48970    0.90420    1.000
    C64      C        0.60734    0.58452    0.91860    1.000
    C65      C        0.63450    0.63320    0.94490    1.000
    H20      H        0.62430    0.67450    0.94160    1.000
    C66      C        0.67674    0.62076    0.97620    1.000
    C67      C        0.69185    0.55934    0.98060    1.000
    H21      H        0.71990    0.55080    0.00150    1.000
    C68      C        0.70464    0.67400    0.00470    1.000
    C69      C        0.56418    0.59870    0.88720    1.000
    C70      C        0.52812    0.61540    0.86380    1.000
    C71      C        0.48654    0.63580    0.84100    1.000
    C72      C        0.45004    0.65630    0.82200    1.000
    C73      C        0.40765    0.68440    0.80650    1.000
    C74      C        0.37674    0.68660    0.85830    1.000
    H22      H        0.38380    0.66800    0.90060    1.000
    C75      C        0.33575    0.71690    0.84520    1.000
    C76      C        0.32539    0.74380    0.78180    1.000
    H23      H        0.29770    0.76270    0.77290    1.000
    C77      C        0.35605    0.74300    0.73050    1.000
    C78      C        0.39695    0.71300    0.74360    1.000
    H24      H        0.41740    0.71200    0.70990    1.000
    C79      C        0.30308    0.72052    0.89900    1.000
    C80      C        0.34405    0.77270    0.66320    1.000
    C81      C        0.83747    0.54250    0.07540    1.000
    C82      C        0.85181    0.47720    0.09380    1.000
    C83      C        0.82780    0.42470    0.06980    1.000
    H25      H        0.80150    0.42970    0.04240    1.000
    C84      C        0.84326    0.36443    0.08690    1.000
    C85      C        0.88256    0.35644    0.12770    1.000
    H26      H        0.89280    0.31620    0.13900    1.000
    C86      C        0.90655    0.40920    0.15140    1.000
    C87      C        0.89080    0.47010    0.13520    1.000
    H27      H        0.90640    0.50530    0.15210    1.000
    C88      C        0.81777    0.30660    0.06340    1.000
    C89      C        0.94670    0.40270    0.19580    1.000
    C90      C        0.98033    0.40040    0.22960    1.000
    Eu7      Eu       0.22387    0.82595    0.94198    1.000
    Eu8      Eu       0.31917    0.16840    0.03757    1.000
    O37      O        0.15951    0.90041    0.92876    1.000
    O38      O        0.22011    0.93302    0.98690    1.000
    O39      O        0.24241    0.16123    0.03180    1.000
    O40      O        0.18952    0.22921    0.99863    1.000
    O41      O        0.81191    0.19071    0.95420    1.000
    O42      O        0.76934    0.25402    0.88624    1.000
    O43      O        0.87282    0.27708    0.62005    1.000
    O44      O        0.80477    0.29229    0.64981    1.000
    O45      O        0.30809    0.05250    0.02950    1.000
    O46      O        0.35405    0.08710    0.10880    1.000
    O47      O        0.28472    0.81292    0.02123    1.000
    O48      O        0.33000    0.75485    0.08867    1.000
    C91      C        0.18219    0.94379    0.95710    1.000
    C92      C        0.16520    0.00957    0.95370    1.000
    C93      C        0.12342    0.02240    0.92260    1.000
    H28      H        0.10590    0.98970    0.90420    1.000
    C94      C        0.10734    0.08452    0.91860    1.000
    C95      C        0.13450    0.13320    0.94490    1.000
    H29      H        0.12430    0.17450    0.94160    1.000
    C96      C        0.17674    0.12076    0.97620    1.000
    C97      C        0.19185    0.05934    0.98060    1.000
    H30      H        0.21990    0.05080    0.00150    1.000
    C98      C        0.20464    0.17400    0.00470    1.000
    C99      C        0.06418    0.09870    0.88720    1.000
    C100     C        0.02812    0.11540    0.86380    1.000
    C101     C        0.98654    0.13580    0.84100    1.000
    C102     C        0.95004    0.15630    0.82200    1.000
    C103     C        0.90765    0.18440    0.80650    1.000
    C104     C        0.87674    0.18660    0.85830    1.000
    H31      H        0.88380    0.16800    0.90060    1.000
    C105     C        0.83575    0.21690    0.84520    1.000
    C106     C        0.82539    0.24380    0.78180    1.000
    H32      H        0.79770    0.26270    0.77290    1.000
    C107     C        0.85605    0.24300    0.73050    1.000
    C108     C        0.89695    0.21300    0.74360    1.000
    H33      H        0.91740    0.21200    0.70990    1.000
    C109     C        0.80308    0.22052    0.89900    1.000
    C110     C        0.84405    0.27270    0.66320    1.000
    C111     C        0.33747    0.04250    0.07540    1.000
    C112     C        0.35181    0.97720    0.09380    1.000
    C113     C        0.32780    0.92470    0.06980    1.000
    H34      H        0.30150    0.92970    0.04240    1.000
    C114     C        0.34326    0.86443    0.08690    1.000
    C115     C        0.38256    0.85644    0.12770    1.000
    H35      H        0.39280    0.81620    0.13900    1.000
    C116     C        0.40655    0.90920    0.15140    1.000
    C117     C        0.39080    0.97010    0.13520    1.000
    H36      H        0.40640    0.00530    0.15210    1.000
    C118     C        0.31777    0.80660    0.06340    1.000
    C119     C        0.44670    0.90270    0.19580    1.000
    C120     C        0.48033    0.90040    0.22960    1.000
    Eu9      Eu       0.72387    0.67405    0.44198    1.000
    Eu10     Eu       0.81917    0.33160    0.53757    1.000
    O49      O        0.65951    0.59959    0.42876    1.000
    O50      O        0.72011    0.56698    0.48690    1.000
    O51      O        0.74241    0.33877    0.53180    1.000
    O52      O        0.68952    0.27079    0.49863    1.000
    O53      O        0.31191    0.30929    0.45420    1.000
    O54      O        0.26934    0.24598    0.38624    1.000
    O55      O        0.37282    0.22292    0.12005    1.000
    O56      O        0.30477    0.20771    0.14981    1.000
    O57      O        0.80809    0.44750    0.52950    1.000
    O58      O        0.85405    0.41290    0.60880    1.000
    O59      O        0.78472    0.68708    0.52123    1.000
    O60      O        0.83000    0.74515    0.58867    1.000
    C121     C        0.68219    0.55621    0.45710    1.000
    C122     C        0.66520    0.49043    0.45370    1.000
    C123     C        0.62342    0.47760    0.42260    1.000
    H37      H        0.60590    0.51030    0.40420    1.000
    C124     C        0.60734    0.41548    0.41860    1.000
    C125     C        0.63450    0.36680    0.44490    1.000
    H38      H        0.62430    0.32550    0.44160    1.000
    C126     C        0.67674    0.37924    0.47620    1.000
    C127     C        0.69185    0.44066    0.48060    1.000
    H39      H        0.71990    0.44920    0.50150    1.000
    C128     C        0.70464    0.32600    0.50470    1.000
    C129     C        0.56418    0.40130    0.38720    1.000
    C130     C        0.52812    0.38460    0.36380    1.000
    C131     C        0.48654    0.36420    0.34100    1.000
    C132     C        0.45004    0.34370    0.32200    1.000
    C133     C        0.40765    0.31560    0.30650    1.000
    C134     C        0.37674    0.31340    0.35830    1.000
    H40      H        0.38380    0.33200    0.40060    1.000
    C135     C        0.33575    0.28310    0.34520    1.000
    C136     C        0.32539    0.25620    0.28180    1.000
    H41      H        0.29770    0.23730    0.27290    1.000
    C137     C        0.35605    0.25700    0.23050    1.000
    C138     C        0.39695    0.28700    0.24360    1.000
    H42      H        0.41740    0.28800    0.20990    1.000
    C139     C        0.30308    0.27948    0.39900    1.000
    C140     C        0.34405    0.22730    0.16320    1.000
    C141     C        0.83747    0.45750    0.57540    1.000
    C142     C        0.85181    0.52280    0.59380    1.000
    C143     C        0.82780    0.57530    0.56980    1.000
    H43      H        0.80150    0.57030    0.54240    1.000
    C144     C        0.84326    0.63557    0.58690    1.000
    C145     C        0.88256    0.64356    0.62770    1.000
    H44      H        0.89280    0.68380    0.63900    1.000
    C146     C        0.90655    0.59080    0.65140    1.000
    C147     C        0.89080    0.52990    0.63520    1.000
    H45      H        0.90640    0.49470    0.65210    1.000
    C148     C        0.81777    0.69340    0.56340    1.000
    C149     C        0.94670    0.59730    0.69580    1.000
    C150     C        0.98033    0.59960    0.72960    1.000
    Eu11     Eu       0.22387    0.17405    0.44198    1.000
    Eu12     Eu       0.31917    0.83160    0.53757    1.000
    O61      O        0.15951    0.09959    0.42876    1.000
    O62      O        0.22011    0.06698    0.48690    1.000
    O63      O        0.24241    0.83877    0.53180    1.000
    O64      O        0.18952    0.77079    0.49863    1.000
    O65      O        0.81191    0.80929    0.45420    1.000
    O66      O        0.76934    0.74598    0.38624    1.000
    O67      O        0.87282    0.72292    0.12005    1.000
    O68      O        0.80477    0.70771    0.14981    1.000
    O69      O        0.30809    0.94750    0.52950    1.000
    O70      O        0.35405    0.91290    0.60880    1.000
    O71      O        0.28472    0.18708    0.52123    1.000
    O72      O        0.33000    0.24515    0.58867    1.000
    C151     C        0.18219    0.05621    0.45710    1.000
    C152     C        0.16520    0.99043    0.45370    1.000
    C153     C        0.12342    0.97760    0.42260    1.000
    H46      H        0.10590    0.01030    0.40420    1.000
    C154     C        0.10734    0.91548    0.41860    1.000
    C155     C        0.13450    0.86680    0.44490    1.000
    H47      H        0.12430    0.82550    0.44160    1.000
    C156     C        0.17674    0.87924    0.47620    1.000
    C157     C        0.19185    0.94066    0.48060    1.000
    H48      H        0.21990    0.94920    0.50150    1.000
    C158     C        0.20464    0.82600    0.50470    1.000
    C159     C        0.06418    0.90130    0.38720    1.000
    C160     C        0.02812    0.88460    0.36380    1.000
    C161     C        0.98654    0.86420    0.34100    1.000
    C162     C        0.95004    0.84370    0.32200    1.000
    C163     C        0.90765    0.81560    0.30650    1.000
    C164     C        0.87674    0.81340    0.35830    1.000
    H49      H        0.88380    0.83200    0.40060    1.000
    C165     C        0.83575    0.78310    0.34520    1.000
    C166     C        0.82539    0.75620    0.28180    1.000
    H50      H        0.79770    0.73730    0.27290    1.000
    C167     C        0.85605    0.75700    0.23050    1.000
    C168     C        0.89695    0.78700    0.24360    1.000
    H51      H        0.91740    0.78800    0.20990    1.000
    C169     C        0.80308    0.77948    0.39900    1.000
    C170     C        0.84405    0.72730    0.16320    1.000
    C171     C        0.33747    0.95750    0.57540    1.000
    C172     C        0.35181    0.02280    0.59380    1.000
    C173     C        0.32780    0.07530    0.56980    1.000
    H52      H        0.30150    0.07030    0.54240    1.000
    C174     C        0.34326    0.13557    0.58690    1.000
    C175     C        0.38256    0.14356    0.62770    1.000
    H53      H        0.39280    0.18380    0.63900    1.000
    C176     C        0.40655    0.09080    0.65140    1.000
    C177     C        0.39080    0.02990    0.63520    1.000
    H54      H        0.40640    0.99470    0.65210    1.000
    C178     C        0.31777    0.19340    0.56340    1.000
    C179     C        0.44670    0.09730    0.69580    1.000
    C180     C        0.48033    0.09960    0.72960    1.000
    Eu13     Eu       0.27613    0.67405    0.05802    1.000
    Eu14     Eu       0.18083    0.33160    0.96243    1.000
    O73      O        0.34049    0.59959    0.07124    1.000
    O74      O        0.27989    0.56698    0.01310    1.000
    O75      O        0.25759    0.33877    0.96820    1.000
    O76      O        0.31048    0.27079    0.00137    1.000
    O77      O        0.68809    0.30929    0.04580    1.000
    O78      O        0.73066    0.24598    0.11376    1.000
    O79      O        0.62718    0.22292    0.37995    1.000
    O80      O        0.69523    0.20771    0.35019    1.000
    O81      O        0.19191    0.44750    0.97050    1.000
    O82      O        0.14595    0.41290    0.89120    1.000
    O83      O        0.21528    0.68708    0.97877    1.000
    O84      O        0.17000    0.74515    0.91133    1.000
    C181     C        0.31781    0.55621    0.04290    1.000
    C182     C        0.33480    0.49043    0.04630    1.000
    C183     C        0.37658    0.47760    0.07740    1.000
    H55      H        0.39410    0.51030    0.09580    1.000
    C184     C        0.39266    0.41548    0.08140    1.000
    C185     C        0.36550    0.36680    0.05510    1.000
    H56      H        0.37570    0.32550    0.05840    1.000
    C186     C        0.32326    0.37924    0.02380    1.000
    C187     C        0.30815    0.44066    0.01940    1.000
    H57      H        0.28010    0.44920    0.99850    1.000
    C188     C        0.29536    0.32600    0.99530    1.000
    C189     C        0.43582    0.40130    0.11280    1.000
    C190     C        0.47188    0.38460    0.13620    1.000
    C191     C        0.51346    0.36420    0.15900    1.000
    C192     C        0.54996    0.34370    0.17800    1.000
    C193     C        0.59235    0.31560    0.19350    1.000
    C194     C        0.62326    0.31340    0.14170    1.000
    H58      H        0.61620    0.33200    0.09940    1.000
    C195     C        0.66425    0.28310    0.15480    1.000
    C196     C        0.67461    0.25620    0.21820    1.000
    H59      H        0.70230    0.23730    0.22710    1.000
    C197     C        0.64395    0.25700    0.26950    1.000
    C198     C        0.60305    0.28700    0.25640    1.000
    H60      H        0.58260    0.28800    0.29010    1.000
    C199     C        0.69692    0.27948    0.10100    1.000
    C200     C        0.65595    0.22730    0.33680    1.000
    C201     C        0.16253    0.45750    0.92460    1.000
    C202     C        0.14819    0.52280    0.90620    1.000
    C203     C        0.17220    0.57530    0.93020    1.000
    H61      H        0.19850    0.57030    0.95760    1.000
    C204     C        0.15674    0.63557    0.91310    1.000
    C205     C        0.11744    0.64356    0.87230    1.000
    H62      H        0.10720    0.68380    0.86100    1.000
    C206     C        0.09345    0.59080    0.84860    1.000
    C207     C        0.10920    0.52990    0.86480    1.000
    H63      H        0.09360    0.49470    0.84790    1.000
    C208     C        0.18223    0.69340    0.93660    1.000
    C209     C        0.05330    0.59730    0.80420    1.000
    C210     C        0.01967    0.59960    0.77040    1.000
    Eu15     Eu       0.77613    0.17405    0.05802    1.000
    Eu16     Eu       0.68083    0.83160    0.96243    1.000
    O85      O        0.84049    0.09959    0.07124    1.000
    O86      O        0.77989    0.06698    0.01310    1.000
    O87      O        0.75759    0.83877    0.96820    1.000
    O88      O        0.81048    0.77079    0.00137    1.000
    O89      O        0.18809    0.80929    0.04580    1.000
    O90      O        0.23066    0.74598    0.11376    1.000
    O91      O        0.12718    0.72292    0.37995    1.000
    O92      O        0.19523    0.70771    0.35019    1.000
    O93      O        0.69191    0.94750    0.97050    1.000
    O94      O        0.64595    0.91290    0.89120    1.000
    O95      O        0.71528    0.18708    0.97877    1.000
    O96      O        0.67000    0.24515    0.91133    1.000
    C211     C        0.81781    0.05621    0.04290    1.000
    C212     C        0.83480    0.99043    0.04630    1.000
    C213     C        0.87658    0.97760    0.07740    1.000
    H64      H        0.89410    0.01030    0.09580    1.000
    C214     C        0.89266    0.91548    0.08140    1.000
    C215     C        0.86550    0.86680    0.05510    1.000
    H65      H        0.87570    0.82550    0.05840    1.000
    C216     C        0.82326    0.87924    0.02380    1.000
    C217     C        0.80815    0.94066    0.01940    1.000
    H66      H        0.78010    0.94920    0.99850    1.000
    C218     C        0.79536    0.82600    0.99530    1.000
    C219     C        0.93582    0.90130    0.11280    1.000
    C220     C        0.97188    0.88460    0.13620    1.000
    C221     C        0.01346    0.86420    0.15900    1.000
    C222     C        0.04996    0.84370    0.17800    1.000
    C223     C        0.09235    0.81560    0.19350    1.000
    C224     C        0.12326    0.81340    0.14170    1.000
    H67      H        0.11620    0.83200    0.09940    1.000
    C225     C        0.16425    0.78310    0.15480    1.000
    C226     C        0.17461    0.75620    0.21820    1.000
    H68      H        0.20230    0.73730    0.22710    1.000
    C227     C        0.14395    0.75700    0.26950    1.000
    C228     C        0.10305    0.78700    0.25640    1.000
    H69      H        0.08260    0.78800    0.29010    1.000
    C229     C        0.19692    0.77948    0.10100    1.000
    C230     C        0.15595    0.72730    0.33680    1.000
    C231     C        0.66253    0.95750    0.92460    1.000
    C232     C        0.64819    0.02280    0.90620    1.000
    C233     C        0.67220    0.07530    0.93020    1.000
    H70      H        0.69850    0.07030    0.95760    1.000
    C234     C        0.65674    0.13557    0.91310    1.000
    C235     C        0.61744    0.14356    0.87230    1.000
    H71      H        0.60720    0.18380    0.86100    1.000
    C236     C        0.59345    0.09080    0.84860    1.000
    C237     C        0.60920    0.02990    0.86480    1.000
    H72      H        0.59360    0.99470    0.84790    1.000
    C238     C        0.68223    0.19340    0.93660    1.000
    C239     C        0.55330    0.09730    0.80420    1.000
    C240     C        0.51967    0.09960    0.77040    1.000
