# CIF file generated by openbabel 3.1.0, see https://openbabel.org
data_I
_chemical_name_common 'image0'
_cell_length_a 12.206
_cell_length_b 17.833
_cell_length_c 15.309
_cell_angle_alpha 90
_cell_angle_beta 111.229
_cell_angle_gamma 90
_space_group_name_H-M_alt 'P 1'
_space_group_name_Hall 'P 1'
loop_
    _symmetry_equiv_pos_as_xyz
    x,y,z
loop_
    _atom_site_label
    _atom_site_type_symbol
    _atom_site_fract_x
    _atom_site_fract_y
    _atom_site_fract_z
    _atom_site_occupancy
    O1       O        0.82170    0.45594    0.78200    1.000
    Zn1      Zn       0.26397    0.37688    0.22924    1.000
    Zn2      Zn       0.03388    0.48662    0.20590    1.000
    O2       O        0.11930    0.34222    0.13930    1.000
    O3       O        0.99560    0.43290    0.09310    1.000
    O4       O        0.68800    0.52837    0.80120    1.000
    O5       O        0.37720    0.19910    0.76720    1.000
    O6       O        0.35000    0.21110    0.62400    1.000
    O7       O        0.24890    0.39480    0.34910    1.000
    O8       O        0.08410    0.45110    0.33070    1.000
    C1       C        0.03160    0.37030    0.08380    1.000
    C2       C        0.96810    0.32760    0.00070    1.000
    C3       C        0.01240    0.26340    0.98110    1.000
    H1       H        0.08600    0.24690    0.02050    1.000
    C4       C        0.95050    0.22270    0.90450    1.000
    H2       H        0.98140    0.17850    0.89090    1.000
    C5       C        0.84380    0.24680    0.84820    1.000
    H3       H        0.80170    0.21900    0.79540    1.000
    C6       C        0.79610    0.31130    0.86700    1.000
    C7       C        0.86020    0.35160    0.94350    1.000
    H4       H        0.82990    0.39600    0.95720    1.000
    C8       C        0.67680    0.33220    0.80650    1.000
    C9       C        0.64520    0.40340    0.77380    1.000
    C10      C        0.53120    0.41700    0.71790    1.000
    H5       H        0.50990    0.46560    0.69650    1.000
    C11      C        0.44890    0.36350    0.69270    1.000
    C12      C        0.48170    0.29220    0.72830    1.000
    C13      C        0.59340    0.27930    0.78460    1.000
    H6       H        0.61370    0.23150    0.80950    1.000
    C14      C        0.72770    0.46670    0.78880    1.000
    C15      C        0.39520    0.22970    0.70370    1.000
    C16      C        0.33290    0.38265    0.63159    1.000
    C17      C        0.30970    0.38922    0.53609    1.000
    H7       H        0.36720    0.37660    0.51210    1.000
    C18      C        0.20060    0.41460    0.47644    1.000
    C19      C        0.11463    0.43340    0.51231    1.000
    H8       H        0.04160    0.45040    0.47240    1.000
    C20      C        0.13780    0.42680    0.60781    1.000
    H9       H        0.08030    0.43940    0.63180    1.000
    C21      C        0.24690    0.40150    0.66746    1.000
    H10      H        0.26240    0.39710    0.73140    1.000
    C22      C        0.17610    0.42050    0.37820    1.000
    O9       O        0.17830    0.95594    0.71800    1.000
    Zn3      Zn       0.73603    0.87688    0.27076    1.000
    Zn4      Zn       0.96612    0.98662    0.29410    1.000
    O10      O        0.88070    0.84222    0.36070    1.000
    O11      O        0.00440    0.93290    0.40690    1.000
    O12      O        0.31200    0.02837    0.69880    1.000
    O13      O        0.62280    0.69910    0.73280    1.000
    O14      O        0.65000    0.71110    0.87600    1.000
    O15      O        0.75110    0.89480    0.15090    1.000
    O16      O        0.91590    0.95110    0.16930    1.000
    C23      C        0.96840    0.87030    0.41620    1.000
    C24      C        0.03190    0.82760    0.49930    1.000
    C25      C        0.98760    0.76340    0.51890    1.000
    H11      H        0.91400    0.74690    0.47950    1.000
    C26      C        0.04950    0.72270    0.59550    1.000
    H12      H        0.01860    0.67850    0.60910    1.000
    C27      C        0.15620    0.74680    0.65180    1.000
    H13      H        0.19830    0.71900    0.70460    1.000
    C28      C        0.20390    0.81130    0.63300    1.000
    C29      C        0.13980    0.85160    0.55650    1.000
    H14      H        0.17010    0.89600    0.54280    1.000
    C30      C        0.32320    0.83220    0.69350    1.000
    C31      C        0.35480    0.90340    0.72620    1.000
    C32      C        0.46880    0.91700    0.78210    1.000
    H15      H        0.49010    0.96560    0.80350    1.000
    C33      C        0.55110    0.86350    0.80730    1.000
    C34      C        0.51830    0.79220    0.77170    1.000
    C35      C        0.40660    0.77930    0.71540    1.000
    H16      H        0.38630    0.73150    0.69050    1.000
    C36      C        0.27230    0.96670    0.71120    1.000
    C37      C        0.60480    0.72970    0.79630    1.000
    C38      C        0.66710    0.88265    0.86841    1.000
    C39      C        0.69030    0.88922    0.96391    1.000
    H17      H        0.63280    0.87660    0.98790    1.000
    C40      C        0.79940    0.91460    0.02356    1.000
    C41      C        0.88537    0.93340    0.98769    1.000
    H18      H        0.95840    0.95040    0.02760    1.000
    C42      C        0.86220    0.92680    0.89219    1.000
    H19      H        0.91970    0.93940    0.86820    1.000
    C43      C        0.75310    0.90150    0.83254    1.000
    H20      H        0.73760    0.89710    0.76860    1.000
    C44      C        0.82390    0.92050    0.12180    1.000
    O17      O        0.17830    0.54406    0.21800    1.000
    Zn5      Zn       0.73603    0.62312    0.77076    1.000
    Zn6      Zn       0.96612    0.51338    0.79410    1.000
    O18      O        0.88070    0.65778    0.86070    1.000
    O19      O        0.00440    0.56710    0.90690    1.000
    O20      O        0.31200    0.47163    0.19880    1.000
    O21      O        0.62280    0.80090    0.23280    1.000
    O22      O        0.65000    0.78890    0.37600    1.000
    O23      O        0.75110    0.60520    0.65090    1.000
    O24      O        0.91590    0.54890    0.66930    1.000
    C45      C        0.96840    0.62970    0.91620    1.000
    C46      C        0.03190    0.67240    0.99930    1.000
    C47      C        0.98760    0.73660    0.01890    1.000
    H21      H        0.91400    0.75310    0.97950    1.000
    C48      C        0.04950    0.77730    0.09550    1.000
    H22      H        0.01860    0.82150    0.10910    1.000
    C49      C        0.15620    0.75320    0.15180    1.000
    H23      H        0.19830    0.78100    0.20460    1.000
    C50      C        0.20390    0.68870    0.13300    1.000
    C51      C        0.13980    0.64840    0.05650    1.000
    H24      H        0.17010    0.60400    0.04280    1.000
    C52      C        0.32320    0.66780    0.19350    1.000
    C53      C        0.35480    0.59660    0.22620    1.000
    C54      C        0.46880    0.58300    0.28210    1.000
    H25      H        0.49010    0.53440    0.30350    1.000
    C55      C        0.55110    0.63650    0.30730    1.000
    C56      C        0.51830    0.70780    0.27170    1.000
    C57      C        0.40660    0.72070    0.21540    1.000
    H26      H        0.38630    0.76850    0.19050    1.000
    C58      C        0.27230    0.53330    0.21120    1.000
    C59      C        0.60480    0.77030    0.29630    1.000
    C60      C        0.66710    0.61735    0.36841    1.000
    C61      C        0.69030    0.61078    0.46391    1.000
    H27      H        0.63280    0.62340    0.48790    1.000
    C62      C        0.79940    0.58540    0.52356    1.000
    C63      C        0.88537    0.56660    0.48769    1.000
    H28      H        0.95840    0.54960    0.52760    1.000
    C64      C        0.86220    0.57320    0.39219    1.000
    H29      H        0.91970    0.56060    0.36820    1.000
    C65      C        0.75310    0.59850    0.33254    1.000
    H30      H        0.73760    0.60290    0.26860    1.000
    C66      C        0.82390    0.57950    0.62180    1.000
    O25      O        0.82170    0.04406    0.28200    1.000
    Zn7      Zn       0.26397    0.12312    0.72924    1.000
    Zn8      Zn       0.03388    0.01338    0.70590    1.000
    O26      O        0.11930    0.15778    0.63930    1.000
    O27      O        0.99560    0.06710    0.59310    1.000
    O28      O        0.68800    0.97163    0.30120    1.000
    O29      O        0.37720    0.30090    0.26720    1.000
    O30      O        0.35000    0.28890    0.12400    1.000
    O31      O        0.24890    0.10520    0.84910    1.000
    O32      O        0.08410    0.04890    0.83070    1.000
    C67      C        0.03160    0.12970    0.58380    1.000
    C68      C        0.96810    0.17240    0.50070    1.000
    C69      C        0.01240    0.23660    0.48110    1.000
    H31      H        0.08600    0.25310    0.52050    1.000
    C70      C        0.95050    0.27730    0.40450    1.000
    H32      H        0.98140    0.32150    0.39090    1.000
    C71      C        0.84380    0.25320    0.34820    1.000
    H33      H        0.80170    0.28100    0.29540    1.000
    C72      C        0.79610    0.18870    0.36700    1.000
    C73      C        0.86020    0.14840    0.44350    1.000
    H34      H        0.82990    0.10400    0.45720    1.000
    C74      C        0.67680    0.16780    0.30650    1.000
    C75      C        0.64520    0.09660    0.27380    1.000
    C76      C        0.53120    0.08300    0.21790    1.000
    H35      H        0.50990    0.03440    0.19650    1.000
    C77      C        0.44890    0.13650    0.19270    1.000
    C78      C        0.48170    0.20780    0.22830    1.000
    C79      C        0.59340    0.22070    0.28460    1.000
    H36      H        0.61370    0.26850    0.30950    1.000
    C80      C        0.72770    0.03330    0.28880    1.000
    C81      C        0.39520    0.27030    0.20370    1.000
    C82      C        0.33290    0.11735    0.13159    1.000
    C83      C        0.30970    0.11078    0.03609    1.000
    H37      H        0.36720    0.12340    0.01210    1.000
    C84      C        0.20060    0.08540    0.97644    1.000
    C85      C        0.11463    0.06660    0.01231    1.000
    H38      H        0.04160    0.04960    0.97240    1.000
    C86      C        0.13780    0.07320    0.10781    1.000
    H39      H        0.08030    0.06060    0.13180    1.000
    C87      C        0.24690    0.09850    0.16746    1.000
    H40      H        0.26240    0.10290    0.23140    1.000
    C88      C        0.17610    0.07950    0.87820    1.000
