# CIF file generated by openbabel 3.1.0, see https://openbabel.org
data_I
_chemical_name_common 'image0'
_cell_length_a 45.611
_cell_length_b 45.611
_cell_length_c 45.611
_cell_angle_alpha 90
_cell_angle_beta 90
_cell_angle_gamma 90
_space_group_name_H-M_alt 'P 1'
_space_group_name_Hall 'P 1'
loop_
    _symmetry_equiv_pos_as_xyz
    x,y,z
loop_
    _atom_site_label
    _atom_site_type_symbol
    _atom_site_fract_x
    _atom_site_fract_y
    _atom_site_fract_z
    _atom_site_occupancy
    H1       H        0.18600    0.62640    0.08890    1.000
    H2       H        0.18960    0.59760    0.03560    1.000
    H3       H        0.28300    0.52950    0.00460    1.000
    H4       H        0.32940    0.51510    0.04000    1.000
    C1       C        0.30570    0.58170    0.04480    1.000
    H5       H        0.31520    0.58890    0.02660    1.000
    H6       H        0.30680    0.59750    0.05960    1.000
    N1       N        0.39391    0.52385    0.08458    1.000
    C2       C        0.27300    0.57420    0.03840    1.000
    H7       H        0.26020    0.58610    0.05120    1.000
    H8       H        0.26830    0.57910    0.01780    1.000
    C3       C        0.35680    0.59470    0.13140    1.000
    H9       H        0.36660    0.57690    0.13900    1.000
    H10      H        0.33630    0.58940    0.12650    1.000
    H11      H        0.41340    0.59620    0.12100    1.000
    C4       C        0.37720    0.51460    0.10990    1.000
    H12      H        0.35650    0.51140    0.10420    1.000
    H13      H        0.37780    0.53010    0.12500    1.000
    C5       C        0.39380    0.49950    0.06240    1.000
    H14      H        0.40510    0.50550    0.04490    1.000
    H15      H        0.37340    0.49530    0.05620    1.000
    C6       C        0.42450    0.52800    0.09260    1.000
    H16      H        0.42600    0.54440    0.10680    1.000
    H17      H        0.43590    0.53340    0.07490    1.000
    H18      H        0.18600    0.12640    0.58890    1.000
    H19      H        0.18960    0.09760    0.53560    1.000
    H20      H        0.28300    0.02950    0.50460    1.000
    H21      H        0.32940    0.01510    0.54000    1.000
    C7       C        0.30570    0.08170    0.54480    1.000
    H22      H        0.31520    0.08890    0.52660    1.000
    H23      H        0.30680    0.09750    0.55960    1.000
    N2       N        0.39391    0.02385    0.58458    1.000
    C8       C        0.27300    0.07420    0.53840    1.000
    H24      H        0.26020    0.08610    0.55120    1.000
    H25      H        0.26830    0.07910    0.51780    1.000
    C9       C        0.35680    0.09470    0.63140    1.000
    H26      H        0.36660    0.07690    0.63900    1.000
    H27      H        0.33630    0.08940    0.62650    1.000
    H28      H        0.41340    0.09620    0.62100    1.000
    C10      C        0.37720    0.01460    0.60990    1.000
    H29      H        0.35650    0.01140    0.60420    1.000
    H30      H        0.37780    0.03010    0.62500    1.000
    C11      C        0.39380    0.99950    0.56240    1.000
    H31      H        0.40510    0.00550    0.54490    1.000
    H32      H        0.37340    0.99530    0.55620    1.000
    C12      C        0.42450    0.02800    0.59260    1.000
    H33      H        0.42600    0.04440    0.60680    1.000
    H34      H        0.43590    0.03340    0.57490    1.000
    H35      H        0.68600    0.62640    0.58890    1.000
    H36      H        0.68960    0.59760    0.53560    1.000
    H37      H        0.78300    0.52950    0.50460    1.000
    H38      H        0.82940    0.51510    0.54000    1.000
    C13      C        0.80570    0.58170    0.54480    1.000
    H39      H        0.81520    0.58890    0.52660    1.000
    H40      H        0.80680    0.59750    0.55960    1.000
    N3       N        0.89391    0.52385    0.58458    1.000
    C14      C        0.77300    0.57420    0.53840    1.000
    H41      H        0.76020    0.58610    0.55120    1.000
    H42      H        0.76830    0.57910    0.51780    1.000
    C15      C        0.85680    0.59470    0.63140    1.000
    H43      H        0.86660    0.57690    0.63900    1.000
    H44      H        0.83630    0.58940    0.62650    1.000
    H45      H        0.91340    0.59620    0.62100    1.000
    C16      C        0.87720    0.51460    0.60990    1.000
    H46      H        0.85650    0.51140    0.60420    1.000
    H47      H        0.87780    0.53010    0.62500    1.000
    C17      C        0.89380    0.49950    0.56240    1.000
    H48      H        0.90510    0.50550    0.54490    1.000
    H49      H        0.87340    0.49530    0.55620    1.000
    C18      C        0.92450    0.52800    0.59260    1.000
    H50      H        0.92600    0.54440    0.60680    1.000
    H51      H        0.93590    0.53340    0.57490    1.000
    H52      H        0.68600    0.12640    0.08890    1.000
    H53      H        0.68960    0.09760    0.03560    1.000
    H54      H        0.78300    0.02950    0.00460    1.000
    H55      H        0.82940    0.01510    0.04000    1.000
    C19      C        0.80570    0.08170    0.04480    1.000
    H56      H        0.81520    0.08890    0.02660    1.000
    H57      H        0.80680    0.09750    0.05960    1.000
    N4       N        0.89391    0.02385    0.08458    1.000
    C20      C        0.77300    0.07420    0.03840    1.000
    H58      H        0.76020    0.08610    0.05120    1.000
    H59      H        0.76830    0.07910    0.01780    1.000
    C21      C        0.85680    0.09470    0.13140    1.000
    H60      H        0.86660    0.07690    0.13900    1.000
    H61      H        0.83630    0.08940    0.12650    1.000
    H62      H        0.91340    0.09620    0.12100    1.000
    C22      C        0.87720    0.01460    0.10990    1.000
    H63      H        0.85650    0.01140    0.10420    1.000
    H64      H        0.87780    0.03010    0.12500    1.000
    C23      C        0.89380    0.99950    0.06240    1.000
    H65      H        0.90510    0.00550    0.04490    1.000
    H66      H        0.87340    0.99530    0.05620    1.000
    C24      C        0.92450    0.02800    0.09260    1.000
    H67      H        0.92600    0.04440    0.10680    1.000
    H68      H        0.93590    0.03340    0.07490    1.000
    H69      H        0.56400    0.62360    0.58890    1.000
    H70      H        0.56040    0.65240    0.53560    1.000
    H71      H        0.46700    0.72050    0.50460    1.000
    H72      H        0.42060    0.73490    0.54000    1.000
    C25      C        0.44430    0.66830    0.54480    1.000
    H73      H        0.43480    0.66110    0.52660    1.000
    H74      H        0.44320    0.65250    0.55960    1.000
    N5       N        0.35609    0.72615    0.58458    1.000
    C26      C        0.47700    0.67580    0.53840    1.000
    H75      H        0.48980    0.66390    0.55120    1.000
    H76      H        0.48170    0.67090    0.51780    1.000
    C27      C        0.39320    0.65530    0.63140    1.000
    H77      H        0.38340    0.67310    0.63900    1.000
    H78      H        0.41370    0.66060    0.62650    1.000
    H79      H        0.33660    0.65380    0.62100    1.000
    C28      C        0.37280    0.73540    0.60990    1.000
    H80      H        0.39350    0.73860    0.60420    1.000
    H81      H        0.37220    0.71990    0.62500    1.000
    C29      C        0.35620    0.75050    0.56240    1.000
    H82      H        0.34490    0.74450    0.54490    1.000
    H83      H        0.37660    0.75470    0.55620    1.000
    C30      C        0.32550    0.72200    0.59260    1.000
    H84      H        0.32400    0.70560    0.60680    1.000
    H85      H        0.31410    0.71660    0.57490    1.000
    H86      H        0.56400    0.12360    0.08890    1.000
    H87      H        0.56040    0.15240    0.03560    1.000
    H88      H        0.46700    0.22050    0.00460    1.000
    H89      H        0.42060    0.23490    0.04000    1.000
    C31      C        0.44430    0.16830    0.04480    1.000
    H90      H        0.43480    0.16110    0.02660    1.000
    H91      H        0.44320    0.15250    0.05960    1.000
    N6       N        0.35609    0.22615    0.08458    1.000
    C32      C        0.47700    0.17580    0.03840    1.000
    H92      H        0.48980    0.16390    0.05120    1.000
    H93      H        0.48170    0.17090    0.01780    1.000
    C33      C        0.39320    0.15530    0.13140    1.000
    H94      H        0.38340    0.17310    0.13900    1.000
    H95      H        0.41370    0.16060    0.12650    1.000
    H96      H        0.33660    0.15380    0.12100    1.000
    C34      C        0.37280    0.23540    0.10990    1.000
    H97      H        0.39350    0.23860    0.10420    1.000
    H98      H        0.37220    0.21990    0.12500    1.000
    C35      C        0.35620    0.25050    0.06240    1.000
    H99      H        0.34490    0.24450    0.04490    1.000
    H100     H        0.37660    0.25470    0.05620    1.000
    C36      C        0.32550    0.22200    0.09260    1.000
    H101     H        0.32400    0.20560    0.10680    1.000
    H102     H        0.31410    0.21660    0.07490    1.000
    H103     H        0.06400    0.62360    0.08890    1.000
    H104     H        0.06040    0.65240    0.03560    1.000
    H105     H        0.96700    0.72050    0.00460    1.000
    H106     H        0.92060    0.73490    0.04000    1.000
    C37      C        0.94430    0.66830    0.04480    1.000
    H107     H        0.93480    0.66110    0.02660    1.000
    H108     H        0.94320    0.65250    0.05960    1.000
    N7       N        0.85609    0.72615    0.08458    1.000
    C38      C        0.97700    0.67580    0.03840    1.000
    H109     H        0.98980    0.66390    0.05120    1.000
    H110     H        0.98170    0.67090    0.01780    1.000
    C39      C        0.89320    0.65530    0.13140    1.000
    H111     H        0.88340    0.67310    0.13900    1.000
    H112     H        0.91370    0.66060    0.12650    1.000
    H113     H        0.83660    0.65380    0.12100    1.000
    C40      C        0.87280    0.73540    0.10990    1.000
    H114     H        0.89350    0.73860    0.10420    1.000
    H115     H        0.87220    0.71990    0.12500    1.000
    C41      C        0.85620    0.75050    0.06240    1.000
    H116     H        0.84490    0.74450    0.04490    1.000
    H117     H        0.87660    0.75470    0.05620    1.000
    C42      C        0.82550    0.72200    0.09260    1.000
    H118     H        0.82400    0.70560    0.10680    1.000
    H119     H        0.81410    0.71660    0.07490    1.000
    H120     H        0.06400    0.12360    0.58890    1.000
    H121     H        0.06040    0.15240    0.53560    1.000
    H122     H        0.96700    0.22050    0.50460    1.000
    H123     H        0.92060    0.23490    0.54000    1.000
    C43      C        0.94430    0.16830    0.54480    1.000
    H124     H        0.93480    0.16110    0.52660    1.000
    H125     H        0.94320    0.15250    0.55960    1.000
    N8       N        0.85609    0.22615    0.58458    1.000
    C44      C        0.97700    0.17580    0.53840    1.000
    H126     H        0.98980    0.16390    0.55120    1.000
    H127     H        0.98170    0.17090    0.51780    1.000
    C45      C        0.89320    0.15530    0.63140    1.000
    H128     H        0.88340    0.17310    0.63900    1.000
    H129     H        0.91370    0.16060    0.62650    1.000
    H130     H        0.83660    0.15380    0.62100    1.000
    C46      C        0.87280    0.23540    0.60990    1.000
    H131     H        0.89350    0.23860    0.60420    1.000
    H132     H        0.87220    0.21990    0.62500    1.000
    C47      C        0.85620    0.25050    0.56240    1.000
    H133     H        0.84490    0.24450    0.54490    1.000
    H134     H        0.87660    0.25470    0.55620    1.000
    C48      C        0.82550    0.22200    0.59260    1.000
    H135     H        0.82400    0.20560    0.60680    1.000
    H136     H        0.81410    0.21660    0.57490    1.000
    H137     H        0.06400    0.12640    0.66110    1.000
    H138     H        0.06040    0.09760    0.71440    1.000
    H139     H        0.96700    0.02950    0.74540    1.000
    H140     H        0.92060    0.01510    0.71000    1.000
    C49      C        0.94430    0.08170    0.70520    1.000
    H141     H        0.93480    0.08890    0.72340    1.000
    H142     H        0.94320    0.09750    0.69040    1.000
    N9       N        0.85609    0.02385    0.66542    1.000
    C50      C        0.97700    0.07420    0.71160    1.000
    H143     H        0.98980    0.08610    0.69880    1.000
    H144     H        0.98170    0.07910    0.73220    1.000
    C51      C        0.89320    0.09470    0.61860    1.000
    H145     H        0.88340    0.07690    0.61100    1.000
    H146     H        0.91370    0.08940    0.62350    1.000
    H147     H        0.83660    0.09620    0.62900    1.000
    C52      C        0.87280    0.01460    0.64010    1.000
    H148     H        0.89350    0.01140    0.64580    1.000
    H149     H        0.87220    0.03010    0.62500    1.000
    C53      C        0.85620    0.99950    0.68760    1.000
    H150     H        0.84490    0.00550    0.70510    1.000
    H151     H        0.87660    0.99530    0.69380    1.000
    C54      C        0.82550    0.02800    0.65740    1.000
    H152     H        0.82400    0.04440    0.64320    1.000
    H153     H        0.81410    0.03340    0.67510    1.000
    H154     H        0.06400    0.62640    0.16110    1.000
    H155     H        0.06040    0.59760    0.21440    1.000
    H156     H        0.96700    0.52950    0.24540    1.000
    H157     H        0.92060    0.51510    0.21000    1.000
    C55      C        0.94430    0.58170    0.20520    1.000
    H158     H        0.93480    0.58890    0.22340    1.000
    H159     H        0.94320    0.59750    0.19040    1.000
    N10      N        0.85609    0.52385    0.16542    1.000
    C56      C        0.97700    0.57420    0.21160    1.000
    H160     H        0.98980    0.58610    0.19880    1.000
    H161     H        0.98170    0.57910    0.23220    1.000
    C57      C        0.89320    0.59470    0.11860    1.000
    H162     H        0.88340    0.57690    0.11100    1.000
    H163     H        0.91370    0.58940    0.12350    1.000
    H164     H        0.83660    0.59620    0.12900    1.000
    C58      C        0.87280    0.51460    0.14010    1.000
    H165     H        0.89350    0.51140    0.14580    1.000
    H166     H        0.87220    0.53010    0.12500    1.000
    C59      C        0.85620    0.49950    0.18760    1.000
    H167     H        0.84490    0.50550    0.20510    1.000
    H168     H        0.87660    0.49530    0.19380    1.000
    C60      C        0.82550    0.52800    0.15740    1.000
    H169     H        0.82400    0.54440    0.14320    1.000
    H170     H        0.81410    0.53340    0.17510    1.000
    H171     H        0.56400    0.12640    0.16110    1.000
    H172     H        0.56040    0.09760    0.21440    1.000
    H173     H        0.46700    0.02950    0.24540    1.000
    H174     H        0.42060    0.01510    0.21000    1.000
    C61      C        0.44430    0.08170    0.20520    1.000
    H175     H        0.43480    0.08890    0.22340    1.000
    H176     H        0.44320    0.09750    0.19040    1.000
    N11      N        0.35609    0.02385    0.16542    1.000
    C62      C        0.47700    0.07420    0.21160    1.000
    H177     H        0.48980    0.08610    0.19880    1.000
    H178     H        0.48170    0.07910    0.23220    1.000
    C63      C        0.39320    0.09470    0.11860    1.000
    H179     H        0.38340    0.07690    0.11100    1.000
    H180     H        0.41370    0.08940    0.12350    1.000
    H181     H        0.33660    0.09620    0.12900    1.000
    C64      C        0.37280    0.01460    0.14010    1.000
    H182     H        0.39350    0.01140    0.14580    1.000
    H183     H        0.37220    0.03010    0.12500    1.000
    C65      C        0.35620    0.99950    0.18760    1.000
    H184     H        0.34490    0.00550    0.20510    1.000
    H185     H        0.37660    0.99530    0.19380    1.000
    C66      C        0.32550    0.02800    0.15740    1.000
    H186     H        0.32400    0.04440    0.14320    1.000
    H187     H        0.31410    0.03340    0.17510    1.000
    H188     H        0.56400    0.62640    0.66110    1.000
    H189     H        0.56040    0.59760    0.71440    1.000
    H190     H        0.46700    0.52950    0.74540    1.000
    H191     H        0.42060    0.51510    0.71000    1.000
    C67      C        0.44430    0.58170    0.70520    1.000
    H192     H        0.43480    0.58890    0.72340    1.000
    H193     H        0.44320    0.59750    0.69040    1.000
    N12      N        0.35609    0.52385    0.66542    1.000
    C68      C        0.47700    0.57420    0.71160    1.000
    H194     H        0.48980    0.58610    0.69880    1.000
    H195     H        0.48170    0.57910    0.73220    1.000
    C69      C        0.39320    0.59470    0.61860    1.000
    H196     H        0.38340    0.57690    0.61100    1.000
    H197     H        0.41370    0.58940    0.62350    1.000
    H198     H        0.33660    0.59620    0.62900    1.000
    C70      C        0.37280    0.51460    0.64010    1.000
    H199     H        0.39350    0.51140    0.64580    1.000
    H200     H        0.37220    0.53010    0.62500    1.000
    C71      C        0.35620    0.49950    0.68760    1.000
    H201     H        0.34490    0.50550    0.70510    1.000
    H202     H        0.37660    0.49530    0.69380    1.000
    C72      C        0.32550    0.52800    0.65740    1.000
    H203     H        0.32400    0.54440    0.64320    1.000
    H204     H        0.31410    0.53340    0.67510    1.000
    H205     H        0.68600    0.12360    0.16110    1.000
    H206     H        0.68960    0.15240    0.21440    1.000
    H207     H        0.78300    0.22050    0.24540    1.000
    H208     H        0.82940    0.23490    0.21000    1.000
    C73      C        0.80570    0.16830    0.20520    1.000
    H209     H        0.81520    0.16110    0.22340    1.000
    H210     H        0.80680    0.15250    0.19040    1.000
    N13      N        0.89391    0.22615    0.16542    1.000
    C74      C        0.77300    0.17580    0.21160    1.000
    H211     H        0.76020    0.16390    0.19880    1.000
    H212     H        0.76830    0.17090    0.23220    1.000
    C75      C        0.85680    0.15530    0.11860    1.000
    H213     H        0.86660    0.17310    0.11100    1.000
    H214     H        0.83630    0.16060    0.12350    1.000
    H215     H        0.91340    0.15380    0.12900    1.000
    C76      C        0.87720    0.23540    0.14010    1.000
    H216     H        0.85650    0.23860    0.14580    1.000
    H217     H        0.87780    0.21990    0.12500    1.000
    C77      C        0.89380    0.25050    0.18760    1.000
    H218     H        0.90510    0.24450    0.20510    1.000
    H219     H        0.87340    0.25470    0.19380    1.000
    C78      C        0.92450    0.22200    0.15740    1.000
    H220     H        0.92600    0.20560    0.14320    1.000
    H221     H        0.93590    0.21660    0.17510    1.000
    H222     H        0.68600    0.62360    0.66110    1.000
    H223     H        0.68960    0.65240    0.71440    1.000
    H224     H        0.78300    0.72050    0.74540    1.000
    H225     H        0.82940    0.73490    0.71000    1.000
    C79      C        0.80570    0.66830    0.70520    1.000
    H226     H        0.81520    0.66110    0.72340    1.000
    H227     H        0.80680    0.65250    0.69040    1.000
    N14      N        0.89391    0.72615    0.66542    1.000
    C80      C        0.77300    0.67580    0.71160    1.000
    H228     H        0.76020    0.66390    0.69880    1.000
    H229     H        0.76830    0.67090    0.73220    1.000
    C81      C        0.85680    0.65530    0.61860    1.000
    H230     H        0.86660    0.67310    0.61100    1.000
    H231     H        0.83630    0.66060    0.62350    1.000
    H232     H        0.91340    0.65380    0.62900    1.000
    C82      C        0.87720    0.73540    0.64010    1.000
    H233     H        0.85650    0.73860    0.64580    1.000
    H234     H        0.87780    0.71990    0.62500    1.000
    C83      C        0.89380    0.75050    0.68760    1.000
    H235     H        0.90510    0.74450    0.70510    1.000
    H236     H        0.87340    0.75470    0.69380    1.000
    C84      C        0.92450    0.72200    0.65740    1.000
    H237     H        0.92600    0.70560    0.64320    1.000
    H238     H        0.93590    0.71660    0.67510    1.000
    H239     H        0.18600    0.12360    0.66110    1.000
    H240     H        0.18960    0.15240    0.71440    1.000
    H241     H        0.28300    0.22050    0.74540    1.000
    H242     H        0.32940    0.23490    0.71000    1.000
    C85      C        0.30570    0.16830    0.70520    1.000
    H243     H        0.31520    0.16110    0.72340    1.000
    H244     H        0.30680    0.15250    0.69040    1.000
    N15      N        0.39391    0.22615    0.66542    1.000
    C86      C        0.27300    0.17580    0.71160    1.000
    H245     H        0.26020    0.16390    0.69880    1.000
    H246     H        0.26830    0.17090    0.73220    1.000
    C87      C        0.35680    0.15530    0.61860    1.000
    H247     H        0.36660    0.17310    0.61100    1.000
    H248     H        0.33630    0.16060    0.62350    1.000
    H249     H        0.41340    0.15380    0.62900    1.000
    C88      C        0.37720    0.23540    0.64010    1.000
    H250     H        0.35650    0.23860    0.64580    1.000
    H251     H        0.37780    0.21990    0.62500    1.000
    C89      C        0.39380    0.25050    0.68760    1.000
    H252     H        0.40510    0.24450    0.70510    1.000
    H253     H        0.37340    0.25470    0.69380    1.000
    C90      C        0.42450    0.22200    0.65740    1.000
    H254     H        0.42600    0.20560    0.64320    1.000
    H255     H        0.43590    0.21660    0.67510    1.000
    H256     H        0.18600    0.62360    0.16110    1.000
    H257     H        0.18960    0.65240    0.21440    1.000
    H258     H        0.28300    0.72050    0.24540    1.000
    H259     H        0.32940    0.73490    0.21000    1.000
    C91      C        0.30570    0.66830    0.20520    1.000
    H260     H        0.31520    0.66110    0.22340    1.000
    H261     H        0.30680    0.65250    0.19040    1.000
    N16      N        0.39391    0.72615    0.16542    1.000
    C92      C        0.27300    0.67580    0.21160    1.000
    H262     H        0.26020    0.66390    0.19880    1.000
    H263     H        0.26830    0.67090    0.23220    1.000
    C93      C        0.35680    0.65530    0.11860    1.000
    H264     H        0.36660    0.67310    0.11100    1.000
    H265     H        0.33630    0.66060    0.12350    1.000
    H266     H        0.41340    0.65380    0.12900    1.000
    C94      C        0.37720    0.73540    0.14010    1.000
    H267     H        0.35650    0.73860    0.14580    1.000
    H268     H        0.37780    0.71990    0.12500    1.000
    C95      C        0.39380    0.75050    0.18760    1.000
    H269     H        0.40510    0.74450    0.20510    1.000
    H270     H        0.37340    0.75470    0.19380    1.000
    C96      C        0.42450    0.72200    0.15740    1.000
    H271     H        0.42600    0.70560    0.14320    1.000
    H272     H        0.43590    0.71660    0.17510    1.000
    H273     H        0.08890    0.18600    0.62640    1.000
    H274     H        0.03560    0.18960    0.59760    1.000
    H275     H        0.00460    0.28300    0.52950    1.000
    H276     H        0.04000    0.32940    0.51510    1.000
    C97      C        0.04480    0.30570    0.58170    1.000
    H277     H        0.02660    0.31520    0.58890    1.000
    H278     H        0.05960    0.30680    0.59750    1.000
    N17      N        0.08458    0.39391    0.52385    1.000
    C98      C        0.03840    0.27300    0.57420    1.000
    H279     H        0.05120    0.26020    0.58610    1.000
    H280     H        0.01780    0.26830    0.57910    1.000
    C99      C        0.13140    0.35680    0.59470    1.000
    H281     H        0.13900    0.36660    0.57690    1.000
    H282     H        0.12650    0.33630    0.58940    1.000
    H283     H        0.12100    0.41340    0.59620    1.000
    C100     C        0.10990    0.37720    0.51460    1.000
    H284     H        0.10420    0.35650    0.51140    1.000
    H285     H        0.12500    0.37780    0.53010    1.000
    C101     C        0.06240    0.39380    0.49950    1.000
    H286     H        0.04490    0.40510    0.50550    1.000
    H287     H        0.05620    0.37340    0.49530    1.000
    C102     C        0.09260    0.42450    0.52800    1.000
    H288     H        0.10680    0.42600    0.54440    1.000
    H289     H        0.07490    0.43590    0.53340    1.000
    H290     H        0.08890    0.68600    0.12640    1.000
    H291     H        0.03560    0.68960    0.09760    1.000
    H292     H        0.00460    0.78300    0.02950    1.000
    H293     H        0.04000    0.82940    0.01510    1.000
    C103     C        0.04480    0.80570    0.08170    1.000
    H294     H        0.02660    0.81520    0.08890    1.000
    H295     H        0.05960    0.80680    0.09750    1.000
    N18      N        0.08458    0.89391    0.02385    1.000
    C104     C        0.03840    0.77300    0.07420    1.000
    H296     H        0.05120    0.76020    0.08610    1.000
    H297     H        0.01780    0.76830    0.07910    1.000
    C105     C        0.13140    0.85680    0.09470    1.000
    H298     H        0.13900    0.86660    0.07690    1.000
    H299     H        0.12650    0.83630    0.08940    1.000
    H300     H        0.12100    0.91340    0.09620    1.000
    C106     C        0.10990    0.87720    0.01460    1.000
    H301     H        0.10420    0.85650    0.01140    1.000
    H302     H        0.12500    0.87780    0.03010    1.000
    C107     C        0.06240    0.89380    0.99950    1.000
    H303     H        0.04490    0.90510    0.00550    1.000
    H304     H        0.05620    0.87340    0.99530    1.000
    C108     C        0.09260    0.92450    0.02800    1.000
    H305     H        0.10680    0.92600    0.04440    1.000
    H306     H        0.07490    0.93590    0.03340    1.000
    H307     H        0.58890    0.18600    0.12640    1.000
    H308     H        0.53560    0.18960    0.09760    1.000
    H309     H        0.50460    0.28300    0.02950    1.000
    H310     H        0.54000    0.32940    0.01510    1.000
    C109     C        0.54480    0.30570    0.08170    1.000
    H311     H        0.52660    0.31520    0.08890    1.000
    H312     H        0.55960    0.30680    0.09750    1.000
    N19      N        0.58458    0.39391    0.02385    1.000
    C110     C        0.53840    0.27300    0.07420    1.000
    H313     H        0.55120    0.26020    0.08610    1.000
    H314     H        0.51780    0.26830    0.07910    1.000
    C111     C        0.63140    0.35680    0.09470    1.000
    H315     H        0.63900    0.36660    0.07690    1.000
    H316     H        0.62650    0.33630    0.08940    1.000
    H317     H        0.62100    0.41340    0.09620    1.000
    C112     C        0.60990    0.37720    0.01460    1.000
    H318     H        0.60420    0.35650    0.01140    1.000
    H319     H        0.62500    0.37780    0.03010    1.000
    C113     C        0.56240    0.39380    0.99950    1.000
    H320     H        0.54490    0.40510    0.00550    1.000
    H321     H        0.55620    0.37340    0.99530    1.000
    C114     C        0.59260    0.42450    0.02800    1.000
    H322     H        0.60680    0.42600    0.04440    1.000
    H323     H        0.57490    0.43590    0.03340    1.000
    H324     H        0.58890    0.68600    0.62640    1.000
    H325     H        0.53560    0.68960    0.59760    1.000
    H326     H        0.50460    0.78300    0.52950    1.000
    H327     H        0.54000    0.82940    0.51510    1.000
    C115     C        0.54480    0.80570    0.58170    1.000
    H328     H        0.52660    0.81520    0.58890    1.000
    H329     H        0.55960    0.80680    0.59750    1.000
    N20      N        0.58458    0.89391    0.52385    1.000
    C116     C        0.53840    0.77300    0.57420    1.000
    H330     H        0.55120    0.76020    0.58610    1.000
    H331     H        0.51780    0.76830    0.57910    1.000
    C117     C        0.63140    0.85680    0.59470    1.000
    H332     H        0.63900    0.86660    0.57690    1.000
    H333     H        0.62650    0.83630    0.58940    1.000
    H334     H        0.62100    0.91340    0.59620    1.000
    C118     C        0.60990    0.87720    0.51460    1.000
    H335     H        0.60420    0.85650    0.51140    1.000
    H336     H        0.62500    0.87780    0.53010    1.000
    C119     C        0.56240    0.89380    0.49950    1.000
    H337     H        0.54490    0.90510    0.50550    1.000
    H338     H        0.55620    0.87340    0.49530    1.000
    C120     C        0.59260    0.92450    0.52800    1.000
    H339     H        0.60680    0.92600    0.54440    1.000
    H340     H        0.57490    0.93590    0.53340    1.000
    H341     H        0.58890    0.56400    0.62360    1.000
    H342     H        0.53560    0.56040    0.65240    1.000
    H343     H        0.50460    0.46700    0.72050    1.000
    H344     H        0.54000    0.42060    0.73490    1.000
    C121     C        0.54480    0.44430    0.66830    1.000
    H345     H        0.52660    0.43480    0.66110    1.000
    H346     H        0.55960    0.44320    0.65250    1.000
    N21      N        0.58458    0.35609    0.72615    1.000
    C122     C        0.53840    0.47700    0.67580    1.000
    H347     H        0.55120    0.48980    0.66390    1.000
    H348     H        0.51780    0.48170    0.67090    1.000
    C123     C        0.63140    0.39320    0.65530    1.000
    H349     H        0.63900    0.38340    0.67310    1.000
    H350     H        0.62650    0.41370    0.66060    1.000
    H351     H        0.62100    0.33660    0.65380    1.000
    C124     C        0.60990    0.37280    0.73540    1.000
    H352     H        0.60420    0.39350    0.73860    1.000
    H353     H        0.62500    0.37220    0.71990    1.000
    C125     C        0.56240    0.35620    0.75050    1.000
    H354     H        0.54490    0.34490    0.74450    1.000
    H355     H        0.55620    0.37660    0.75470    1.000
    C126     C        0.59260    0.32550    0.72200    1.000
    H356     H        0.60680    0.32400    0.70560    1.000
    H357     H        0.57490    0.31410    0.71660    1.000
    H358     H        0.58890    0.06400    0.12360    1.000
    H359     H        0.53560    0.06040    0.15240    1.000
    H360     H        0.50460    0.96700    0.22050    1.000
    H361     H        0.54000    0.92060    0.23490    1.000
    C127     C        0.54480    0.94430    0.16830    1.000
    H362     H        0.52660    0.93480    0.16110    1.000
    H363     H        0.55960    0.94320    0.15250    1.000
    N22      N        0.58458    0.85609    0.22615    1.000
    C128     C        0.53840    0.97700    0.17580    1.000
    H364     H        0.55120    0.98980    0.16390    1.000
    H365     H        0.51780    0.98170    0.17090    1.000
    C129     C        0.63140    0.89320    0.15530    1.000
    H366     H        0.63900    0.88340    0.17310    1.000
    H367     H        0.62650    0.91370    0.16060    1.000
    H368     H        0.62100    0.83660    0.15380    1.000
    C130     C        0.60990    0.87280    0.23540    1.000
    H369     H        0.60420    0.89350    0.23860    1.000
    H370     H        0.62500    0.87220    0.21990    1.000
    C131     C        0.56240    0.85620    0.25050    1.000
    H371     H        0.54490    0.84490    0.24450    1.000
    H372     H        0.55620    0.87660    0.25470    1.000
    C132     C        0.59260    0.82550    0.22200    1.000
    H373     H        0.60680    0.82400    0.20560    1.000
    H374     H        0.57490    0.81410    0.21660    1.000
    H375     H        0.08890    0.56400    0.12360    1.000
    H376     H        0.03560    0.56040    0.15240    1.000
    H377     H        0.00460    0.46700    0.22050    1.000
    H378     H        0.04000    0.42060    0.23490    1.000
    C133     C        0.04480    0.44430    0.16830    1.000
    H379     H        0.02660    0.43480    0.16110    1.000
    H380     H        0.05960    0.44320    0.15250    1.000
    N23      N        0.08458    0.35609    0.22615    1.000
    C134     C        0.03840    0.47700    0.17580    1.000
    H381     H        0.05120    0.48980    0.16390    1.000
    H382     H        0.01780    0.48170    0.17090    1.000
    C135     C        0.13140    0.39320    0.15530    1.000
    H383     H        0.13900    0.38340    0.17310    1.000
    H384     H        0.12650    0.41370    0.16060    1.000
    H385     H        0.12100    0.33660    0.15380    1.000
    C136     C        0.10990    0.37280    0.23540    1.000
    H386     H        0.10420    0.39350    0.23860    1.000
    H387     H        0.12500    0.37220    0.21990    1.000
    C137     C        0.06240    0.35620    0.25050    1.000
    H388     H        0.04490    0.34490    0.24450    1.000
    H389     H        0.05620    0.37660    0.25470    1.000
    C138     C        0.09260    0.32550    0.22200    1.000
    H390     H        0.10680    0.32400    0.20560    1.000
    H391     H        0.07490    0.31410    0.21660    1.000
    H392     H        0.08890    0.06400    0.62360    1.000
    H393     H        0.03560    0.06040    0.65240    1.000
    H394     H        0.00460    0.96700    0.72050    1.000
    H395     H        0.04000    0.92060    0.73490    1.000
    C139     C        0.04480    0.94430    0.66830    1.000
    H396     H        0.02660    0.93480    0.66110    1.000
    H397     H        0.05960    0.94320    0.65250    1.000
    N24      N        0.08458    0.85609    0.72615    1.000
    C140     C        0.03840    0.97700    0.67580    1.000
    H398     H        0.05120    0.98980    0.66390    1.000
    H399     H        0.01780    0.98170    0.67090    1.000
    C141     C        0.13140    0.89320    0.65530    1.000
    H400     H        0.13900    0.88340    0.67310    1.000
    H401     H        0.12650    0.91370    0.66060    1.000
    H402     H        0.12100    0.83660    0.65380    1.000
    C142     C        0.10990    0.87280    0.73540    1.000
    H403     H        0.10420    0.89350    0.73860    1.000
    H404     H        0.12500    0.87220    0.71990    1.000
    C143     C        0.06240    0.85620    0.75050    1.000
    H405     H        0.04490    0.84490    0.74450    1.000
    H406     H        0.05620    0.87660    0.75470    1.000
    C144     C        0.09260    0.82550    0.72200    1.000
    H407     H        0.10680    0.82400    0.70560    1.000
    H408     H        0.07490    0.81410    0.71660    1.000
    H409     H        0.66110    0.06400    0.12640    1.000
    H410     H        0.71440    0.06040    0.09760    1.000
    H411     H        0.74540    0.96700    0.02950    1.000
    H412     H        0.71000    0.92060    0.01510    1.000
    C145     C        0.70520    0.94430    0.08170    1.000
    H413     H        0.72340    0.93480    0.08890    1.000
    H414     H        0.69040    0.94320    0.09750    1.000
    N25      N        0.66542    0.85609    0.02385    1.000
    C146     C        0.71160    0.97700    0.07420    1.000
    H415     H        0.69880    0.98980    0.08610    1.000
    H416     H        0.73220    0.98170    0.07910    1.000
    C147     C        0.61860    0.89320    0.09470    1.000
    H417     H        0.61100    0.88340    0.07690    1.000
    H418     H        0.62350    0.91370    0.08940    1.000
    H419     H        0.62900    0.83660    0.09620    1.000
    C148     C        0.64010    0.87280    0.01460    1.000
    H420     H        0.64580    0.89350    0.01140    1.000
    H421     H        0.62500    0.87220    0.03010    1.000
    C149     C        0.68760    0.85620    0.99950    1.000
    H422     H        0.70510    0.84490    0.00550    1.000
    H423     H        0.69380    0.87660    0.99530    1.000
    C150     C        0.65740    0.82550    0.02800    1.000
    H424     H        0.64320    0.82400    0.04440    1.000
    H425     H        0.67510    0.81410    0.03340    1.000
    H426     H        0.66110    0.56400    0.62640    1.000
    H427     H        0.71440    0.56040    0.59760    1.000
    H428     H        0.74540    0.46700    0.52950    1.000
    H429     H        0.71000    0.42060    0.51510    1.000
    C151     C        0.70520    0.44430    0.58170    1.000
    H430     H        0.72340    0.43480    0.58890    1.000
    H431     H        0.69040    0.44320    0.59750    1.000
    N26      N        0.66542    0.35609    0.52385    1.000
    C152     C        0.71160    0.47700    0.57420    1.000
    H432     H        0.69880    0.48980    0.58610    1.000
    H433     H        0.73220    0.48170    0.57910    1.000
    C153     C        0.61860    0.39320    0.59470    1.000
    H434     H        0.61100    0.38340    0.57690    1.000
    H435     H        0.62350    0.41370    0.58940    1.000
    H436     H        0.62900    0.33660    0.59620    1.000
    C154     C        0.64010    0.37280    0.51460    1.000
    H437     H        0.64580    0.39350    0.51140    1.000
    H438     H        0.62500    0.37220    0.53010    1.000
    C155     C        0.68760    0.35620    0.49950    1.000
    H439     H        0.70510    0.34490    0.50550    1.000
    H440     H        0.69380    0.37660    0.49530    1.000
    C156     C        0.65740    0.32550    0.52800    1.000
    H441     H        0.64320    0.32400    0.54440    1.000
    H442     H        0.67510    0.31410    0.53340    1.000
    H443     H        0.16110    0.06400    0.62640    1.000
    H444     H        0.21440    0.06040    0.59760    1.000
    H445     H        0.24540    0.96700    0.52950    1.000
    H446     H        0.21000    0.92060    0.51510    1.000
    C157     C        0.20520    0.94430    0.58170    1.000
    H447     H        0.22340    0.93480    0.58890    1.000
    H448     H        0.19040    0.94320    0.59750    1.000
    N27      N        0.16542    0.85609    0.52385    1.000
    C158     C        0.21160    0.97700    0.57420    1.000
    H449     H        0.19880    0.98980    0.58610    1.000
    H450     H        0.23220    0.98170    0.57910    1.000
    C159     C        0.11860    0.89320    0.59470    1.000
    H451     H        0.11100    0.88340    0.57690    1.000
    H452     H        0.12350    0.91370    0.58940    1.000
    H453     H        0.12900    0.83660    0.59620    1.000
    C160     C        0.14010    0.87280    0.51460    1.000
    H454     H        0.14580    0.89350    0.51140    1.000
    H455     H        0.12500    0.87220    0.53010    1.000
    C161     C        0.18760    0.85620    0.49950    1.000
    H456     H        0.20510    0.84490    0.50550    1.000
    H457     H        0.19380    0.87660    0.49530    1.000
    C162     C        0.15740    0.82550    0.52800    1.000
    H458     H        0.14320    0.82400    0.54440    1.000
    H459     H        0.17510    0.81410    0.53340    1.000
    H460     H        0.16110    0.56400    0.12640    1.000
    H461     H        0.21440    0.56040    0.09760    1.000
    H462     H        0.24540    0.46700    0.02950    1.000
    H463     H        0.21000    0.42060    0.01510    1.000
    C163     C        0.20520    0.44430    0.08170    1.000
    H464     H        0.22340    0.43480    0.08890    1.000
    H465     H        0.19040    0.44320    0.09750    1.000
    N28      N        0.16542    0.35609    0.02385    1.000
    C164     C        0.21160    0.47700    0.07420    1.000
    H466     H        0.19880    0.48980    0.08610    1.000
    H467     H        0.23220    0.48170    0.07910    1.000
    C165     C        0.11860    0.39320    0.09470    1.000
    H468     H        0.11100    0.38340    0.07690    1.000
    H469     H        0.12350    0.41370    0.08940    1.000
    H470     H        0.12900    0.33660    0.09620    1.000
    C166     C        0.14010    0.37280    0.01460    1.000
    H471     H        0.14580    0.39350    0.01140    1.000
    H472     H        0.12500    0.37220    0.03010    1.000
    C167     C        0.18760    0.35620    0.99950    1.000
    H473     H        0.20510    0.34490    0.00550    1.000
    H474     H        0.19380    0.37660    0.99530    1.000
    C168     C        0.15740    0.32550    0.02800    1.000
    H475     H        0.14320    0.32400    0.04440    1.000
    H476     H        0.17510    0.31410    0.03340    1.000
    H477     H        0.16110    0.68600    0.12360    1.000
    H478     H        0.21440    0.68960    0.15240    1.000
    H479     H        0.24540    0.78300    0.22050    1.000
    H480     H        0.21000    0.82940    0.23490    1.000
    C169     C        0.20520    0.80570    0.16830    1.000
    H481     H        0.22340    0.81520    0.16110    1.000
    H482     H        0.19040    0.80680    0.15250    1.000
    N29      N        0.16542    0.89391    0.22615    1.000
    C170     C        0.21160    0.77300    0.17580    1.000
    H483     H        0.19880    0.76020    0.16390    1.000
    H484     H        0.23220    0.76830    0.17090    1.000
    C171     C        0.11860    0.85680    0.15530    1.000
    H485     H        0.11100    0.86660    0.17310    1.000
    H486     H        0.12350    0.83630    0.16060    1.000
    H487     H        0.12900    0.91340    0.15380    1.000
    C172     C        0.14010    0.87720    0.23540    1.000
    H488     H        0.14580    0.85650    0.23860    1.000
    H489     H        0.12500    0.87780    0.21990    1.000
    C173     C        0.18760    0.89380    0.25050    1.000
    H490     H        0.20510    0.90510    0.24450    1.000
    H491     H        0.19380    0.87340    0.25470    1.000
    C174     C        0.15740    0.92450    0.22200    1.000
    H492     H        0.14320    0.92600    0.20560    1.000
    H493     H        0.17510    0.93590    0.21660    1.000
    H494     H        0.16110    0.18600    0.62360    1.000
    H495     H        0.21440    0.18960    0.65240    1.000
    H496     H        0.24540    0.28300    0.72050    1.000
    H497     H        0.21000    0.32940    0.73490    1.000
    C175     C        0.20520    0.30570    0.66830    1.000
    H498     H        0.22340    0.31520    0.66110    1.000
    H499     H        0.19040    0.30680    0.65250    1.000
    N30      N        0.16542    0.39391    0.72615    1.000
    C176     C        0.21160    0.27300    0.67580    1.000
    H500     H        0.19880    0.26020    0.66390    1.000
    H501     H        0.23220    0.26830    0.67090    1.000
    C177     C        0.11860    0.35680    0.65530    1.000
    H502     H        0.11100    0.36660    0.67310    1.000
    H503     H        0.12350    0.33630    0.66060    1.000
    H504     H        0.12900    0.41340    0.65380    1.000
    C178     C        0.14010    0.37720    0.73540    1.000
    H505     H        0.14580    0.35650    0.73860    1.000
    H506     H        0.12500    0.37780    0.71990    1.000
    C179     C        0.18760    0.39380    0.75050    1.000
    H507     H        0.20510    0.40510    0.74450    1.000
    H508     H        0.19380    0.37340    0.75470    1.000
    C180     C        0.15740    0.42450    0.72200    1.000
    H509     H        0.14320    0.42600    0.70560    1.000
    H510     H        0.17510    0.43590    0.71660    1.000
    H511     H        0.66110    0.68600    0.62360    1.000
    H512     H        0.71440    0.68960    0.65240    1.000
    H513     H        0.74540    0.78300    0.72050    1.000
    H514     H        0.71000    0.82940    0.73490    1.000
    C181     C        0.70520    0.80570    0.66830    1.000
    H515     H        0.72340    0.81520    0.66110    1.000
    H516     H        0.69040    0.80680    0.65250    1.000
    N31      N        0.66542    0.89391    0.72615    1.000
    C182     C        0.71160    0.77300    0.67580    1.000
    H517     H        0.69880    0.76020    0.66390    1.000
    H518     H        0.73220    0.76830    0.67090    1.000
    C183     C        0.61860    0.85680    0.65530    1.000
    H519     H        0.61100    0.86660    0.67310    1.000
    H520     H        0.62350    0.83630    0.66060    1.000
    H521     H        0.62900    0.91340    0.65380    1.000
    C184     C        0.64010    0.87720    0.73540    1.000
    H522     H        0.64580    0.85650    0.73860    1.000
    H523     H        0.62500    0.87780    0.71990    1.000
    C185     C        0.68760    0.89380    0.75050    1.000
    H524     H        0.70510    0.90510    0.74450    1.000
    H525     H        0.69380    0.87340    0.75470    1.000
    C186     C        0.65740    0.92450    0.72200    1.000
    H526     H        0.64320    0.92600    0.70560    1.000
    H527     H        0.67510    0.93590    0.71660    1.000
    H528     H        0.66110    0.18600    0.12360    1.000
    H529     H        0.71440    0.18960    0.15240    1.000
    H530     H        0.74540    0.28300    0.22050    1.000
    H531     H        0.71000    0.32940    0.23490    1.000
    C187     C        0.70520    0.30570    0.16830    1.000
    H532     H        0.72340    0.31520    0.16110    1.000
    H533     H        0.69040    0.30680    0.15250    1.000
    N32      N        0.66542    0.39391    0.22615    1.000
    C188     C        0.71160    0.27300    0.17580    1.000
    H534     H        0.69880    0.26020    0.16390    1.000
    H535     H        0.73220    0.26830    0.17090    1.000
    C189     C        0.61860    0.35680    0.15530    1.000
    H536     H        0.61100    0.36660    0.17310    1.000
    H537     H        0.62350    0.33630    0.16060    1.000
    H538     H        0.62900    0.41340    0.15380    1.000
    C190     C        0.64010    0.37720    0.23540    1.000
    H539     H        0.64580    0.35650    0.23860    1.000
    H540     H        0.62500    0.37780    0.21990    1.000
    C191     C        0.68760    0.39380    0.25050    1.000
    H541     H        0.70510    0.40510    0.24450    1.000
    H542     H        0.69380    0.37340    0.25470    1.000
    C192     C        0.65740    0.42450    0.22200    1.000
    H543     H        0.64320    0.42600    0.20560    1.000
    H544     H        0.67510    0.43590    0.21660    1.000
    H545     H        0.62640    0.08890    0.18600    1.000
    H546     H        0.59760    0.03560    0.18960    1.000
    H547     H        0.52950    0.00460    0.28300    1.000
    H548     H        0.51510    0.04000    0.32940    1.000
    C193     C        0.58170    0.04480    0.30570    1.000
    H549     H        0.58890    0.02660    0.31520    1.000
    H550     H        0.59750    0.05960    0.30680    1.000
    N33      N        0.52385    0.08458    0.39391    1.000
    C194     C        0.57420    0.03840    0.27300    1.000
    H551     H        0.58610    0.05120    0.26020    1.000
    H552     H        0.57910    0.01780    0.26830    1.000
    C195     C        0.59470    0.13140    0.35680    1.000
    H553     H        0.57690    0.13900    0.36660    1.000
    H554     H        0.58940    0.12650    0.33630    1.000
    H555     H        0.59620    0.12100    0.41340    1.000
    C196     C        0.51460    0.10990    0.37720    1.000
    H556     H        0.51140    0.10420    0.35650    1.000
    H557     H        0.53010    0.12500    0.37780    1.000
    C197     C        0.49950    0.06240    0.39380    1.000
    H558     H        0.50550    0.04490    0.40510    1.000
    H559     H        0.49530    0.05620    0.37340    1.000
    C198     C        0.52800    0.09260    0.42450    1.000
    H560     H        0.54440    0.10680    0.42600    1.000
    H561     H        0.53340    0.07490    0.43590    1.000
    H562     H        0.62640    0.58890    0.68600    1.000
    H563     H        0.59760    0.53560    0.68960    1.000
    H564     H        0.52950    0.50460    0.78300    1.000
    H565     H        0.51510    0.54000    0.82940    1.000
    C199     C        0.58170    0.54480    0.80570    1.000
    H566     H        0.58890    0.52660    0.81520    1.000
    H567     H        0.59750    0.55960    0.80680    1.000
    N34      N        0.52385    0.58458    0.89391    1.000
    C200     C        0.57420    0.53840    0.77300    1.000
    H568     H        0.58610    0.55120    0.76020    1.000
    H569     H        0.57910    0.51780    0.76830    1.000
    C201     C        0.59470    0.63140    0.85680    1.000
    H570     H        0.57690    0.63900    0.86660    1.000
    H571     H        0.58940    0.62650    0.83630    1.000
    H572     H        0.59620    0.62100    0.91340    1.000
    C202     C        0.51460    0.60990    0.87720    1.000
    H573     H        0.51140    0.60420    0.85650    1.000
    H574     H        0.53010    0.62500    0.87780    1.000
    C203     C        0.49950    0.56240    0.89380    1.000
    H575     H        0.50550    0.54490    0.90510    1.000
    H576     H        0.49530    0.55620    0.87340    1.000
    C204     C        0.52800    0.59260    0.92450    1.000
    H577     H        0.54440    0.60680    0.92600    1.000
    H578     H        0.53340    0.57490    0.93590    1.000
    H579     H        0.12640    0.08890    0.68600    1.000
    H580     H        0.09760    0.03560    0.68960    1.000
    H581     H        0.02950    0.00460    0.78300    1.000
    H582     H        0.01510    0.04000    0.82940    1.000
    C205     C        0.08170    0.04480    0.80570    1.000
    H583     H        0.08890    0.02660    0.81520    1.000
    H584     H        0.09750    0.05960    0.80680    1.000
    N35      N        0.02385    0.08458    0.89391    1.000
    C206     C        0.07420    0.03840    0.77300    1.000
    H585     H        0.08610    0.05120    0.76020    1.000
    H586     H        0.07910    0.01780    0.76830    1.000
    C207     C        0.09470    0.13140    0.85680    1.000
    H587     H        0.07690    0.13900    0.86660    1.000
    H588     H        0.08940    0.12650    0.83630    1.000
    H589     H        0.09620    0.12100    0.91340    1.000
    C208     C        0.01460    0.10990    0.87720    1.000
    H590     H        0.01140    0.10420    0.85650    1.000
    H591     H        0.03010    0.12500    0.87780    1.000
    C209     C        0.99950    0.06240    0.89380    1.000
    H592     H        0.00550    0.04490    0.90510    1.000
    H593     H        0.99530    0.05620    0.87340    1.000
    C210     C        0.02800    0.09260    0.92450    1.000
    H594     H        0.04440    0.10680    0.92600    1.000
    H595     H        0.03340    0.07490    0.93590    1.000
    H596     H        0.12640    0.58890    0.18600    1.000
    H597     H        0.09760    0.53560    0.18960    1.000
    H598     H        0.02950    0.50460    0.28300    1.000
    H599     H        0.01510    0.54000    0.32940    1.000
    C211     C        0.08170    0.54480    0.30570    1.000
    H600     H        0.08890    0.52660    0.31520    1.000
    H601     H        0.09750    0.55960    0.30680    1.000
    N36      N        0.02385    0.58458    0.39391    1.000
    C212     C        0.07420    0.53840    0.27300    1.000
    H602     H        0.08610    0.55120    0.26020    1.000
    H603     H        0.07910    0.51780    0.26830    1.000
    C213     C        0.09470    0.63140    0.35680    1.000
    H604     H        0.07690    0.63900    0.36660    1.000
    H605     H        0.08940    0.62650    0.33630    1.000
    H606     H        0.09620    0.62100    0.41340    1.000
    C214     C        0.01460    0.60990    0.37720    1.000
    H607     H        0.01140    0.60420    0.35650    1.000
    H608     H        0.03010    0.62500    0.37780    1.000
    C215     C        0.99950    0.56240    0.39380    1.000
    H609     H        0.00550    0.54490    0.40510    1.000
    H610     H        0.99530    0.55620    0.37340    1.000
    C216     C        0.02800    0.59260    0.42450    1.000
    H611     H        0.04440    0.60680    0.42600    1.000
    H612     H        0.03340    0.57490    0.43590    1.000
    H613     H        0.62360    0.58890    0.56400    1.000
    H614     H        0.65240    0.53560    0.56040    1.000
    H615     H        0.72050    0.50460    0.46700    1.000
    H616     H        0.73490    0.54000    0.42060    1.000
    C217     C        0.66830    0.54480    0.44430    1.000
    H617     H        0.66110    0.52660    0.43480    1.000
    H618     H        0.65250    0.55960    0.44320    1.000
    N37      N        0.72615    0.58458    0.35609    1.000
    C218     C        0.67580    0.53840    0.47700    1.000
    H619     H        0.66390    0.55120    0.48980    1.000
    H620     H        0.67090    0.51780    0.48170    1.000
    C219     C        0.65530    0.63140    0.39320    1.000
    H621     H        0.67310    0.63900    0.38340    1.000
    H622     H        0.66060    0.62650    0.41370    1.000
    H623     H        0.65380    0.62100    0.33660    1.000
    C220     C        0.73540    0.60990    0.37280    1.000
    H624     H        0.73860    0.60420    0.39350    1.000
    H625     H        0.71990    0.62500    0.37220    1.000
    C221     C        0.75050    0.56240    0.35620    1.000
    H626     H        0.74450    0.54490    0.34490    1.000
    H627     H        0.75470    0.55620    0.37660    1.000
    C222     C        0.72200    0.59260    0.32550    1.000
    H628     H        0.70560    0.60680    0.32400    1.000
    H629     H        0.71660    0.57490    0.31410    1.000
    H630     H        0.62360    0.08890    0.06400    1.000
    H631     H        0.65240    0.03560    0.06040    1.000
    H632     H        0.72050    0.00460    0.96700    1.000
    H633     H        0.73490    0.04000    0.92060    1.000
    C223     C        0.66830    0.04480    0.94430    1.000
    H634     H        0.66110    0.02660    0.93480    1.000
    H635     H        0.65250    0.05960    0.94320    1.000
    N38      N        0.72615    0.08458    0.85609    1.000
    C224     C        0.67580    0.03840    0.97700    1.000
    H636     H        0.66390    0.05120    0.98980    1.000
    H637     H        0.67090    0.01780    0.98170    1.000
    C225     C        0.65530    0.13140    0.89320    1.000
    H638     H        0.67310    0.13900    0.88340    1.000
    H639     H        0.66060    0.12650    0.91370    1.000
    H640     H        0.65380    0.12100    0.83660    1.000
    C226     C        0.73540    0.10990    0.87280    1.000
    H641     H        0.73860    0.10420    0.89350    1.000
    H642     H        0.71990    0.12500    0.87220    1.000
    C227     C        0.75050    0.06240    0.85620    1.000
    H643     H        0.74450    0.04490    0.84490    1.000
    H644     H        0.75470    0.05620    0.87660    1.000
    C228     C        0.72200    0.09260    0.82550    1.000
    H645     H        0.70560    0.10680    0.82400    1.000
    H646     H        0.71660    0.07490    0.81410    1.000
    H647     H        0.12360    0.58890    0.06400    1.000
    H648     H        0.15240    0.53560    0.06040    1.000
    H649     H        0.22050    0.50460    0.96700    1.000
    H650     H        0.23490    0.54000    0.92060    1.000
    C229     C        0.16830    0.54480    0.94430    1.000
    H651     H        0.16110    0.52660    0.93480    1.000
    H652     H        0.15250    0.55960    0.94320    1.000
    N39      N        0.22615    0.58458    0.85609    1.000
    C230     C        0.17580    0.53840    0.97700    1.000
    H653     H        0.16390    0.55120    0.98980    1.000
    H654     H        0.17090    0.51780    0.98170    1.000
    C231     C        0.15530    0.63140    0.89320    1.000
    H655     H        0.17310    0.63900    0.88340    1.000
    H656     H        0.16060    0.62650    0.91370    1.000
    H657     H        0.15380    0.62100    0.83660    1.000
    C232     C        0.23540    0.60990    0.87280    1.000
    H658     H        0.23860    0.60420    0.89350    1.000
    H659     H        0.21990    0.62500    0.87220    1.000
    C233     C        0.25050    0.56240    0.85620    1.000
    H660     H        0.24450    0.54490    0.84490    1.000
    H661     H        0.25470    0.55620    0.87660    1.000
    C234     C        0.22200    0.59260    0.82550    1.000
    H662     H        0.20560    0.60680    0.82400    1.000
    H663     H        0.21660    0.57490    0.81410    1.000
    H664     H        0.12360    0.08890    0.56400    1.000
    H665     H        0.15240    0.03560    0.56040    1.000
    H666     H        0.22050    0.00460    0.46700    1.000
    H667     H        0.23490    0.04000    0.42060    1.000
    C235     C        0.16830    0.04480    0.44430    1.000
    H668     H        0.16110    0.02660    0.43480    1.000
    H669     H        0.15250    0.05960    0.44320    1.000
    N40      N        0.22615    0.08458    0.35609    1.000
    C236     C        0.17580    0.03840    0.47700    1.000
    H670     H        0.16390    0.05120    0.48980    1.000
    H671     H        0.17090    0.01780    0.48170    1.000
    C237     C        0.15530    0.13140    0.39320    1.000
    H672     H        0.17310    0.13900    0.38340    1.000
    H673     H        0.16060    0.12650    0.41370    1.000
    H674     H        0.15380    0.12100    0.33660    1.000
    C238     C        0.23540    0.10990    0.37280    1.000
    H675     H        0.23860    0.10420    0.39350    1.000
    H676     H        0.21990    0.12500    0.37220    1.000
    C239     C        0.25050    0.06240    0.35620    1.000
    H677     H        0.24450    0.04490    0.34490    1.000
    H678     H        0.25470    0.05620    0.37660    1.000
    C240     C        0.22200    0.09260    0.32550    1.000
    H679     H        0.20560    0.10680    0.32400    1.000
    H680     H        0.21660    0.07490    0.31410    1.000
    H681     H        0.12640    0.66110    0.06400    1.000
    H682     H        0.09760    0.71440    0.06040    1.000
    H683     H        0.02950    0.74540    0.96700    1.000
    H684     H        0.01510    0.71000    0.92060    1.000
    C241     C        0.08170    0.70520    0.94430    1.000
    H685     H        0.08890    0.72340    0.93480    1.000
    H686     H        0.09750    0.69040    0.94320    1.000
    N41      N        0.02385    0.66542    0.85609    1.000
    C242     C        0.07420    0.71160    0.97700    1.000
    H687     H        0.08610    0.69880    0.98980    1.000
    H688     H        0.07910    0.73220    0.98170    1.000
    C243     C        0.09470    0.61860    0.89320    1.000
    H689     H        0.07690    0.61100    0.88340    1.000
    H690     H        0.08940    0.62350    0.91370    1.000
    H691     H        0.09620    0.62900    0.83660    1.000
    C244     C        0.01460    0.64010    0.87280    1.000
    H692     H        0.01140    0.64580    0.89350    1.000
    H693     H        0.03010    0.62500    0.87220    1.000
    C245     C        0.99950    0.68760    0.85620    1.000
    H694     H        0.00550    0.70510    0.84490    1.000
    H695     H        0.99530    0.69380    0.87660    1.000
    C246     C        0.02800    0.65740    0.82550    1.000
    H696     H        0.04440    0.64320    0.82400    1.000
    H697     H        0.03340    0.67510    0.81410    1.000
    H698     H        0.12640    0.16110    0.56400    1.000
    H699     H        0.09760    0.21440    0.56040    1.000
    H700     H        0.02950    0.24540    0.46700    1.000
    H701     H        0.01510    0.21000    0.42060    1.000
    C247     C        0.08170    0.20520    0.44430    1.000
    H702     H        0.08890    0.22340    0.43480    1.000
    H703     H        0.09750    0.19040    0.44320    1.000
    N42      N        0.02385    0.16542    0.35609    1.000
    C248     C        0.07420    0.21160    0.47700    1.000
    H704     H        0.08610    0.19880    0.48980    1.000
    H705     H        0.07910    0.23220    0.48170    1.000
    C249     C        0.09470    0.11860    0.39320    1.000
    H706     H        0.07690    0.11100    0.38340    1.000
    H707     H        0.08940    0.12350    0.41370    1.000
    H708     H        0.09620    0.12900    0.33660    1.000
    C250     C        0.01460    0.14010    0.37280    1.000
    H709     H        0.01140    0.14580    0.39350    1.000
    H710     H        0.03010    0.12500    0.37220    1.000
    C251     C        0.99950    0.18760    0.35620    1.000
    H711     H        0.00550    0.20510    0.34490    1.000
    H712     H        0.99530    0.19380    0.37660    1.000
    C252     C        0.02800    0.15740    0.32550    1.000
    H713     H        0.04440    0.14320    0.32400    1.000
    H714     H        0.03340    0.17510    0.31410    1.000
    H715     H        0.62640    0.66110    0.56400    1.000
    H716     H        0.59760    0.71440    0.56040    1.000
    H717     H        0.52950    0.74540    0.46700    1.000
    H718     H        0.51510    0.71000    0.42060    1.000
    C253     C        0.58170    0.70520    0.44430    1.000
    H719     H        0.58890    0.72340    0.43480    1.000
    H720     H        0.59750    0.69040    0.44320    1.000
    N43      N        0.52385    0.66542    0.35609    1.000
    C254     C        0.57420    0.71160    0.47700    1.000
    H721     H        0.58610    0.69880    0.48980    1.000
    H722     H        0.57910    0.73220    0.48170    1.000
    C255     C        0.59470    0.61860    0.39320    1.000
    H723     H        0.57690    0.61100    0.38340    1.000
    H724     H        0.58940    0.62350    0.41370    1.000
    H725     H        0.59620    0.62900    0.33660    1.000
    C256     C        0.51460    0.64010    0.37280    1.000
    H726     H        0.51140    0.64580    0.39350    1.000
    H727     H        0.53010    0.62500    0.37220    1.000
    C257     C        0.49950    0.68760    0.35620    1.000
    H728     H        0.50550    0.70510    0.34490    1.000
    H729     H        0.49530    0.69380    0.37660    1.000
    C258     C        0.52800    0.65740    0.32550    1.000
    H730     H        0.54440    0.64320    0.32400    1.000
    H731     H        0.53340    0.67510    0.31410    1.000
    H732     H        0.62640    0.16110    0.06400    1.000
    H733     H        0.59760    0.21440    0.06040    1.000
    H734     H        0.52950    0.24540    0.96700    1.000
    H735     H        0.51510    0.21000    0.92060    1.000
    C259     C        0.58170    0.20520    0.94430    1.000
    H736     H        0.58890    0.22340    0.93480    1.000
    H737     H        0.59750    0.19040    0.94320    1.000
    N44      N        0.52385    0.16542    0.85609    1.000
    C260     C        0.57420    0.21160    0.97700    1.000
    H738     H        0.58610    0.19880    0.98980    1.000
    H739     H        0.57910    0.23220    0.98170    1.000
    C261     C        0.59470    0.11860    0.89320    1.000
    H740     H        0.57690    0.11100    0.88340    1.000
    H741     H        0.58940    0.12350    0.91370    1.000
    H742     H        0.59620    0.12900    0.83660    1.000
    C262     C        0.51460    0.14010    0.87280    1.000
    H743     H        0.51140    0.14580    0.89350    1.000
    H744     H        0.53010    0.12500    0.87220    1.000
    C263     C        0.49950    0.18760    0.85620    1.000
    H745     H        0.50550    0.20510    0.84490    1.000
    H746     H        0.49530    0.19380    0.87660    1.000
    C264     C        0.52800    0.15740    0.82550    1.000
    H747     H        0.54440    0.14320    0.82400    1.000
    H748     H        0.53340    0.17510    0.81410    1.000
    H749     H        0.12360    0.16110    0.68600    1.000
    H750     H        0.15240    0.21440    0.68960    1.000
    H751     H        0.22050    0.24540    0.78300    1.000
    H752     H        0.23490    0.21000    0.82940    1.000
    C265     C        0.16830    0.20520    0.80570    1.000
    H753     H        0.16110    0.22340    0.81520    1.000
    H754     H        0.15250    0.19040    0.80680    1.000
    N45      N        0.22615    0.16542    0.89391    1.000
    C266     C        0.17580    0.21160    0.77300    1.000
    H755     H        0.16390    0.19880    0.76020    1.000
    H756     H        0.17090    0.23220    0.76830    1.000
    C267     C        0.15530    0.11860    0.85680    1.000
    H757     H        0.17310    0.11100    0.86660    1.000
    H758     H        0.16060    0.12350    0.83630    1.000
    H759     H        0.15380    0.12900    0.91340    1.000
    C268     C        0.23540    0.14010    0.87720    1.000
    H760     H        0.23860    0.14580    0.85650    1.000
    H761     H        0.21990    0.12500    0.87780    1.000
    C269     C        0.25050    0.18760    0.89380    1.000
    H762     H        0.24450    0.20510    0.90510    1.000
    H763     H        0.25470    0.19380    0.87340    1.000
    C270     C        0.22200    0.15740    0.92450    1.000
    H764     H        0.20560    0.14320    0.92600    1.000
    H765     H        0.21660    0.17510    0.93590    1.000
    H766     H        0.12360    0.66110    0.18600    1.000
    H767     H        0.15240    0.71440    0.18960    1.000
    H768     H        0.22050    0.74540    0.28300    1.000
    H769     H        0.23490    0.71000    0.32940    1.000
    C271     C        0.16830    0.70520    0.30570    1.000
    H770     H        0.16110    0.72340    0.31520    1.000
    H771     H        0.15250    0.69040    0.30680    1.000
    N46      N        0.22615    0.66542    0.39391    1.000
    C272     C        0.17580    0.71160    0.27300    1.000
    H772     H        0.16390    0.69880    0.26020    1.000
    H773     H        0.17090    0.73220    0.26830    1.000
    C273     C        0.15530    0.61860    0.35680    1.000
    H774     H        0.17310    0.61100    0.36660    1.000
    H775     H        0.16060    0.62350    0.33630    1.000
    H776     H        0.15380    0.62900    0.41340    1.000
    C274     C        0.23540    0.64010    0.37720    1.000
    H777     H        0.23860    0.64580    0.35650    1.000
    H778     H        0.21990    0.62500    0.37780    1.000
    C275     C        0.25050    0.68760    0.39380    1.000
    H779     H        0.24450    0.70510    0.40510    1.000
    H780     H        0.25470    0.69380    0.37340    1.000
    C276     C        0.22200    0.65740    0.42450    1.000
    H781     H        0.20560    0.64320    0.42600    1.000
    H782     H        0.21660    0.67510    0.43590    1.000
    H783     H        0.62360    0.16110    0.18600    1.000
    H784     H        0.65240    0.21440    0.18960    1.000
    H785     H        0.72050    0.24540    0.28300    1.000
    H786     H        0.73490    0.21000    0.32940    1.000
    C277     C        0.66830    0.20520    0.30570    1.000
    H787     H        0.66110    0.22340    0.31520    1.000
    H788     H        0.65250    0.19040    0.30680    1.000
    N47      N        0.72615    0.16542    0.39391    1.000
    C278     C        0.67580    0.21160    0.27300    1.000
    H789     H        0.66390    0.19880    0.26020    1.000
    H790     H        0.67090    0.23220    0.26830    1.000
    C279     C        0.65530    0.11860    0.35680    1.000
    H791     H        0.67310    0.11100    0.36660    1.000
    H792     H        0.66060    0.12350    0.33630    1.000
    H793     H        0.65380    0.12900    0.41340    1.000
    C280     C        0.73540    0.14010    0.37720    1.000
    H794     H        0.73860    0.14580    0.35650    1.000
    H795     H        0.71990    0.12500    0.37780    1.000
    C281     C        0.75050    0.18760    0.39380    1.000
    H796     H        0.74450    0.20510    0.40510    1.000
    H797     H        0.75470    0.19380    0.37340    1.000
    C282     C        0.72200    0.15740    0.42450    1.000
    H798     H        0.70560    0.14320    0.42600    1.000
    H799     H        0.71660    0.17510    0.43590    1.000
    H800     H        0.62360    0.66110    0.68600    1.000
    H801     H        0.65240    0.71440    0.68960    1.000
    H802     H        0.72050    0.74540    0.78300    1.000
    H803     H        0.73490    0.71000    0.82940    1.000
    C283     C        0.66830    0.70520    0.80570    1.000
    H804     H        0.66110    0.72340    0.81520    1.000
    H805     H        0.65250    0.69040    0.80680    1.000
    N48      N        0.72615    0.66542    0.89391    1.000
    C284     C        0.67580    0.71160    0.77300    1.000
    H806     H        0.66390    0.69880    0.76020    1.000
    H807     H        0.67090    0.73220    0.76830    1.000
    C285     C        0.65530    0.61860    0.85680    1.000
    H808     H        0.67310    0.61100    0.86660    1.000
    H809     H        0.66060    0.62350    0.83630    1.000
    H810     H        0.65380    0.62900    0.91340    1.000
    C286     C        0.73540    0.64010    0.87720    1.000
    H811     H        0.73860    0.64580    0.85650    1.000
    H812     H        0.71990    0.62500    0.87780    1.000
    C287     C        0.75050    0.68760    0.89380    1.000
    H813     H        0.74450    0.70510    0.90510    1.000
    H814     H        0.75470    0.69380    0.87340    1.000
    C288     C        0.72200    0.65740    0.92450    1.000
    H815     H        0.70560    0.64320    0.92600    1.000
    H816     H        0.71660    0.67510    0.93590    1.000
    H817     H        0.37640    0.43600    0.41110    1.000
    H818     H        0.34760    0.43960    0.46440    1.000
    H819     H        0.27950    0.53300    0.49540    1.000
    H820     H        0.26510    0.57940    0.46000    1.000
    C289     C        0.33170    0.55570    0.45520    1.000
    H821     H        0.33890    0.56520    0.47340    1.000
    H822     H        0.34750    0.55680    0.44040    1.000
    N49      N        0.27385    0.64391    0.41542    1.000
    C290     C        0.32420    0.52300    0.46160    1.000
    H823     H        0.33610    0.51020    0.44880    1.000
    H824     H        0.32910    0.51830    0.48220    1.000
    C291     C        0.34470    0.60680    0.36860    1.000
    H825     H        0.32690    0.61660    0.36100    1.000
    H826     H        0.33940    0.58630    0.37350    1.000
    H827     H        0.34620    0.66340    0.37900    1.000
    C292     C        0.26460    0.62720    0.39010    1.000
    H828     H        0.26140    0.60650    0.39580    1.000
    H829     H        0.28010    0.62780    0.37500    1.000
    C293     C        0.24950    0.64380    0.43760    1.000
    H830     H        0.25550    0.65510    0.45510    1.000
    H831     H        0.24530    0.62340    0.44380    1.000
    C294     C        0.27800    0.67450    0.40740    1.000
    H832     H        0.29440    0.67600    0.39320    1.000
    H833     H        0.28340    0.68590    0.42510    1.000
    H834     H        0.37640    0.93600    0.91110    1.000
    H835     H        0.34760    0.93960    0.96440    1.000
    H836     H        0.27950    0.03300    0.99540    1.000
    H837     H        0.26510    0.07940    0.96000    1.000
    C295     C        0.33170    0.05570    0.95520    1.000
    H838     H        0.33890    0.06520    0.97340    1.000
    H839     H        0.34750    0.05680    0.94040    1.000
    N50      N        0.27385    0.14391    0.91542    1.000
    C296     C        0.32420    0.02300    0.96160    1.000
    H840     H        0.33610    0.01020    0.94880    1.000
    H841     H        0.32910    0.01830    0.98220    1.000
    C297     C        0.34470    0.10680    0.86860    1.000
    H842     H        0.32690    0.11660    0.86100    1.000
    H843     H        0.33940    0.08630    0.87350    1.000
    H844     H        0.34620    0.16340    0.87900    1.000
    C298     C        0.26460    0.12720    0.89010    1.000
    H845     H        0.26140    0.10650    0.89580    1.000
    H846     H        0.28010    0.12780    0.87500    1.000
    C299     C        0.24950    0.14380    0.93760    1.000
    H847     H        0.25550    0.15510    0.95510    1.000
    H848     H        0.24530    0.12340    0.94380    1.000
    C300     C        0.27800    0.17450    0.90740    1.000
    H849     H        0.29440    0.17600    0.89320    1.000
    H850     H        0.28340    0.18590    0.92510    1.000
    H851     H        0.87640    0.43600    0.91110    1.000
    H852     H        0.84760    0.43960    0.96440    1.000
    H853     H        0.77950    0.53300    0.99540    1.000
    H854     H        0.76510    0.57940    0.96000    1.000
    C301     C        0.83170    0.55570    0.95520    1.000
    H855     H        0.83890    0.56520    0.97340    1.000
    H856     H        0.84750    0.55680    0.94040    1.000
    N51      N        0.77385    0.64391    0.91542    1.000
    C302     C        0.82420    0.52300    0.96160    1.000
    H857     H        0.83610    0.51020    0.94880    1.000
    H858     H        0.82910    0.51830    0.98220    1.000
    C303     C        0.84470    0.60680    0.86860    1.000
    H859     H        0.82690    0.61660    0.86100    1.000
    H860     H        0.83940    0.58630    0.87350    1.000
    H861     H        0.84620    0.66340    0.87900    1.000
    C304     C        0.76460    0.62720    0.89010    1.000
    H862     H        0.76140    0.60650    0.89580    1.000
    H863     H        0.78010    0.62780    0.87500    1.000
    C305     C        0.74950    0.64380    0.93760    1.000
    H864     H        0.75550    0.65510    0.95510    1.000
    H865     H        0.74530    0.62340    0.94380    1.000
    C306     C        0.77800    0.67450    0.90740    1.000
    H866     H        0.79440    0.67600    0.89320    1.000
    H867     H        0.78340    0.68590    0.92510    1.000
    H868     H        0.87640    0.93600    0.41110    1.000
    H869     H        0.84760    0.93960    0.46440    1.000
    H870     H        0.77950    0.03300    0.49540    1.000
    H871     H        0.76510    0.07940    0.46000    1.000
    C307     C        0.83170    0.05570    0.45520    1.000
    H872     H        0.83890    0.06520    0.47340    1.000
    H873     H        0.84750    0.05680    0.44040    1.000
    N52      N        0.77385    0.14391    0.41542    1.000
    C308     C        0.82420    0.02300    0.46160    1.000
    H874     H        0.83610    0.01020    0.44880    1.000
    H875     H        0.82910    0.01830    0.48220    1.000
    C309     C        0.84470    0.10680    0.36860    1.000
    H876     H        0.82690    0.11660    0.36100    1.000
    H877     H        0.83940    0.08630    0.37350    1.000
    H878     H        0.84620    0.16340    0.37900    1.000
    C310     C        0.76460    0.12720    0.39010    1.000
    H879     H        0.76140    0.10650    0.39580    1.000
    H880     H        0.78010    0.12780    0.37500    1.000
    C311     C        0.74950    0.14380    0.43760    1.000
    H881     H        0.75550    0.15510    0.45510    1.000
    H882     H        0.74530    0.12340    0.44380    1.000
    C312     C        0.77800    0.17450    0.40740    1.000
    H883     H        0.79440    0.17600    0.39320    1.000
    H884     H        0.78340    0.18590    0.42510    1.000
    H885     H        0.37360    0.81400    0.91110    1.000
    H886     H        0.40240    0.81040    0.96440    1.000
    H887     H        0.47050    0.71700    0.99540    1.000
    H888     H        0.48490    0.67060    0.96000    1.000
    C313     C        0.41830    0.69430    0.95520    1.000
    H889     H        0.41110    0.68480    0.97340    1.000
    H890     H        0.40250    0.69320    0.94040    1.000
    N53      N        0.47615    0.60609    0.91542    1.000
    C314     C        0.42580    0.72700    0.96160    1.000
    H891     H        0.41390    0.73980    0.94880    1.000
    H892     H        0.42090    0.73170    0.98220    1.000
    C315     C        0.40530    0.64320    0.86860    1.000
    H893     H        0.42310    0.63340    0.86100    1.000
    H894     H        0.41060    0.66370    0.87350    1.000
    H895     H        0.40380    0.58660    0.87900    1.000
    C316     C        0.48540    0.62280    0.89010    1.000
    H896     H        0.48860    0.64350    0.89580    1.000
    H897     H        0.46990    0.62220    0.87500    1.000
    C317     C        0.50050    0.60620    0.93760    1.000
    H898     H        0.49450    0.59490    0.95510    1.000
    H899     H        0.50470    0.62660    0.94380    1.000
    C318     C        0.47200    0.57550    0.90740    1.000
    H900     H        0.45560    0.57400    0.89320    1.000
    H901     H        0.46660    0.56410    0.92510    1.000
    H902     H        0.37360    0.31400    0.41110    1.000
    H903     H        0.40240    0.31040    0.46440    1.000
    H904     H        0.47050    0.21700    0.49540    1.000
    H905     H        0.48490    0.17060    0.46000    1.000
    C319     C        0.41830    0.19430    0.45520    1.000
    H906     H        0.41110    0.18480    0.47340    1.000
    H907     H        0.40250    0.19320    0.44040    1.000
    N54      N        0.47615    0.10609    0.41542    1.000
    C320     C        0.42580    0.22700    0.46160    1.000
    H908     H        0.41390    0.23980    0.44880    1.000
    H909     H        0.42090    0.23170    0.48220    1.000
    C321     C        0.40530    0.14320    0.36860    1.000
    H910     H        0.42310    0.13340    0.36100    1.000
    H911     H        0.41060    0.16370    0.37350    1.000
    H912     H        0.40380    0.08660    0.37900    1.000
    C322     C        0.48540    0.12280    0.39010    1.000
    H913     H        0.48860    0.14350    0.39580    1.000
    H914     H        0.46990    0.12220    0.37500    1.000
    C323     C        0.50050    0.10620    0.43760    1.000
    H915     H        0.49450    0.09490    0.45510    1.000
    H916     H        0.50470    0.12660    0.44380    1.000
    C324     C        0.47200    0.07550    0.40740    1.000
    H917     H        0.45560    0.07400    0.39320    1.000
    H918     H        0.46660    0.06410    0.42510    1.000
    H919     H        0.87360    0.81400    0.41110    1.000
    H920     H        0.90240    0.81040    0.46440    1.000
    H921     H        0.97050    0.71700    0.49540    1.000
    H922     H        0.98490    0.67060    0.46000    1.000
    C325     C        0.91830    0.69430    0.45520    1.000
    H923     H        0.91110    0.68480    0.47340    1.000
    H924     H        0.90250    0.69320    0.44040    1.000
    N55      N        0.97615    0.60609    0.41542    1.000
    C326     C        0.92580    0.72700    0.46160    1.000
    H925     H        0.91390    0.73980    0.44880    1.000
    H926     H        0.92090    0.73170    0.48220    1.000
    C327     C        0.90530    0.64320    0.36860    1.000
    H927     H        0.92310    0.63340    0.36100    1.000
    H928     H        0.91060    0.66370    0.37350    1.000
    H929     H        0.90380    0.58660    0.37900    1.000
    C328     C        0.98540    0.62280    0.39010    1.000
    H930     H        0.98860    0.64350    0.39580    1.000
    H931     H        0.96990    0.62220    0.37500    1.000
    C329     C        0.00050    0.60620    0.43760    1.000
    H932     H        0.99450    0.59490    0.45510    1.000
    H933     H        0.00470    0.62660    0.44380    1.000
    C330     C        0.97200    0.57550    0.40740    1.000
    H934     H        0.95560    0.57400    0.39320    1.000
    H935     H        0.96660    0.56410    0.42510    1.000
    H936     H        0.87360    0.31400    0.91110    1.000
    H937     H        0.90240    0.31040    0.96440    1.000
    H938     H        0.97050    0.21700    0.99540    1.000
    H939     H        0.98490    0.17060    0.96000    1.000
    C331     C        0.91830    0.19430    0.95520    1.000
    H940     H        0.91110    0.18480    0.97340    1.000
    H941     H        0.90250    0.19320    0.94040    1.000
    N56      N        0.97615    0.10609    0.91542    1.000
    C332     C        0.92580    0.22700    0.96160    1.000
    H942     H        0.91390    0.23980    0.94880    1.000
    H943     H        0.92090    0.23170    0.98220    1.000
    C333     C        0.90530    0.14320    0.86860    1.000
    H944     H        0.92310    0.13340    0.86100    1.000
    H945     H        0.91060    0.16370    0.87350    1.000
    H946     H        0.90380    0.08660    0.87900    1.000
    C334     C        0.98540    0.12280    0.89010    1.000
    H947     H        0.98860    0.14350    0.89580    1.000
    H948     H        0.96990    0.12220    0.87500    1.000
    C335     C        0.00050    0.10620    0.93760    1.000
    H949     H        0.99450    0.09490    0.95510    1.000
    H950     H        0.00470    0.12660    0.94380    1.000
    C336     C        0.97200    0.07550    0.90740    1.000
    H951     H        0.95560    0.07400    0.89320    1.000
    H952     H        0.96660    0.06410    0.92510    1.000
    H953     H        0.87640    0.31400    0.83890    1.000
    H954     H        0.84760    0.31040    0.78560    1.000
    H955     H        0.77950    0.21700    0.75460    1.000
    H956     H        0.76510    0.17060    0.79000    1.000
    C337     C        0.83170    0.19430    0.79480    1.000
    H957     H        0.83890    0.18480    0.77660    1.000
    H958     H        0.84750    0.19320    0.80960    1.000
    N57      N        0.77385    0.10609    0.83458    1.000
    C338     C        0.82420    0.22700    0.78840    1.000
    H959     H        0.83610    0.23980    0.80120    1.000
    H960     H        0.82910    0.23170    0.76780    1.000
    C339     C        0.84470    0.14320    0.88140    1.000
    H961     H        0.82690    0.13340    0.88900    1.000
    H962     H        0.83940    0.16370    0.87650    1.000
    H963     H        0.84620    0.08660    0.87100    1.000
    C340     C        0.76460    0.12280    0.85990    1.000
    H964     H        0.76140    0.14350    0.85420    1.000
    H965     H        0.78010    0.12220    0.87500    1.000
    C341     C        0.74950    0.10620    0.81240    1.000
    H966     H        0.75550    0.09490    0.79490    1.000
    H967     H        0.74530    0.12660    0.80620    1.000
    C342     C        0.77800    0.07550    0.84260    1.000
    H968     H        0.79440    0.07400    0.85680    1.000
    H969     H        0.78340    0.06410    0.82490    1.000
    H970     H        0.87640    0.81400    0.33890    1.000
    H971     H        0.84760    0.81040    0.28560    1.000
    H972     H        0.77950    0.71700    0.25460    1.000
    H973     H        0.76510    0.67060    0.29000    1.000
    C343     C        0.83170    0.69430    0.29480    1.000
    H974     H        0.83890    0.68480    0.27660    1.000
    H975     H        0.84750    0.69320    0.30960    1.000
    N58      N        0.77385    0.60609    0.33458    1.000
    C344     C        0.82420    0.72700    0.28840    1.000
    H976     H        0.83610    0.73980    0.30120    1.000
    H977     H        0.82910    0.73170    0.26780    1.000
    C345     C        0.84470    0.64320    0.38140    1.000
    H978     H        0.82690    0.63340    0.38900    1.000
    H979     H        0.83940    0.66370    0.37650    1.000
    H980     H        0.84620    0.58660    0.37100    1.000
    C346     C        0.76460    0.62280    0.35990    1.000
    H981     H        0.76140    0.64350    0.35420    1.000
    H982     H        0.78010    0.62220    0.37500    1.000
    C347     C        0.74950    0.60620    0.31240    1.000
    H983     H        0.75550    0.59490    0.29490    1.000
    H984     H        0.74530    0.62660    0.30620    1.000
    C348     C        0.77800    0.57550    0.34260    1.000
    H985     H        0.79440    0.57400    0.35680    1.000
    H986     H        0.78340    0.56410    0.32490    1.000
    H987     H        0.37640    0.31400    0.33890    1.000
    H988     H        0.34760    0.31040    0.28560    1.000
    H989     H        0.27950    0.21700    0.25460    1.000
    H990     H        0.26510    0.17060    0.29000    1.000
    C349     C        0.33170    0.19430    0.29480    1.000
    H991     H        0.33890    0.18480    0.27660    1.000
    H992     H        0.34750    0.19320    0.30960    1.000
    N59      N        0.27385    0.10609    0.33458    1.000
    C350     C        0.32420    0.22700    0.28840    1.000
    H993     H        0.33610    0.23980    0.30120    1.000
    H994     H        0.32910    0.23170    0.26780    1.000
    C351     C        0.34470    0.14320    0.38140    1.000
    H995     H        0.32690    0.13340    0.38900    1.000
    H996     H        0.33940    0.16370    0.37650    1.000
    H997     H        0.34620    0.08660    0.37100    1.000
    C352     C        0.26460    0.12280    0.35990    1.000
    H998     H        0.26140    0.14350    0.35420    1.000
    H999     H        0.28010    0.12220    0.37500    1.000
    C353     C        0.24950    0.10620    0.31240    1.000
    H1000    H        0.25550    0.09490    0.29490    1.000
    H1001    H        0.24530    0.12660    0.30620    1.000
    C354     C        0.27800    0.07550    0.34260    1.000
    H1002    H        0.29440    0.07400    0.35680    1.000
    H1003    H        0.28340    0.06410    0.32490    1.000
    H1004    H        0.37640    0.81400    0.83890    1.000
    H1005    H        0.34760    0.81040    0.78560    1.000
    H1006    H        0.27950    0.71700    0.75460    1.000
    H1007    H        0.26510    0.67060    0.79000    1.000
    C355     C        0.33170    0.69430    0.79480    1.000
    H1008    H        0.33890    0.68480    0.77660    1.000
    H1009    H        0.34750    0.69320    0.80960    1.000
    N60      N        0.27385    0.60609    0.83458    1.000
    C356     C        0.32420    0.72700    0.78840    1.000
    H1010    H        0.33610    0.73980    0.80120    1.000
    H1011    H        0.32910    0.73170    0.76780    1.000
    C357     C        0.34470    0.64320    0.88140    1.000
    H1012    H        0.32690    0.63340    0.88900    1.000
    H1013    H        0.33940    0.66370    0.87650    1.000
    H1014    H        0.34620    0.58660    0.87100    1.000
    C358     C        0.26460    0.62280    0.85990    1.000
    H1015    H        0.26140    0.64350    0.85420    1.000
    H1016    H        0.28010    0.62220    0.87500    1.000
    C359     C        0.24950    0.60620    0.81240    1.000
    H1017    H        0.25550    0.59490    0.79490    1.000
    H1018    H        0.24530    0.62660    0.80620    1.000
    C360     C        0.27800    0.57550    0.84260    1.000
    H1019    H        0.29440    0.57400    0.85680    1.000
    H1020    H        0.28340    0.56410    0.82490    1.000
    H1021    H        0.87360    0.93600    0.33890    1.000
    H1022    H        0.90240    0.93960    0.28560    1.000
    H1023    H        0.97050    0.03300    0.25460    1.000
    H1024    H        0.98490    0.07940    0.29000    1.000
    C361     C        0.91830    0.05570    0.29480    1.000
    H1025    H        0.91110    0.06520    0.27660    1.000
    H1026    H        0.90250    0.05680    0.30960    1.000
    N61      N        0.97615    0.14391    0.33458    1.000
    C362     C        0.92580    0.02300    0.28840    1.000
    H1027    H        0.91390    0.01020    0.30120    1.000
    H1028    H        0.92090    0.01830    0.26780    1.000
    C363     C        0.90530    0.10680    0.38140    1.000
    H1029    H        0.92310    0.11660    0.38900    1.000
    H1030    H        0.91060    0.08630    0.37650    1.000
    H1031    H        0.90380    0.16340    0.37100    1.000
    C364     C        0.98540    0.12720    0.35990    1.000
    H1032    H        0.98860    0.10650    0.35420    1.000
    H1033    H        0.96990    0.12780    0.37500    1.000
    C365     C        0.00050    0.14380    0.31240    1.000
    H1034    H        0.99450    0.15510    0.29490    1.000
    H1035    H        0.00470    0.12340    0.30620    1.000
    C366     C        0.97200    0.17450    0.34260    1.000
    H1036    H        0.95560    0.17600    0.35680    1.000
    H1037    H        0.96660    0.18590    0.32490    1.000
    H1038    H        0.87360    0.43600    0.83890    1.000
    H1039    H        0.90240    0.43960    0.78560    1.000
    H1040    H        0.97050    0.53300    0.75460    1.000
    H1041    H        0.98490    0.57940    0.79000    1.000
    C367     C        0.91830    0.55570    0.79480    1.000
    H1042    H        0.91110    0.56520    0.77660    1.000
    H1043    H        0.90250    0.55680    0.80960    1.000
    N62      N        0.97615    0.64391    0.83458    1.000
    C368     C        0.92580    0.52300    0.78840    1.000
    H1044    H        0.91390    0.51020    0.80120    1.000
    H1045    H        0.92090    0.51830    0.76780    1.000
    C369     C        0.90530    0.60680    0.88140    1.000
    H1046    H        0.92310    0.61660    0.88900    1.000
    H1047    H        0.91060    0.58630    0.87650    1.000
    H1048    H        0.90380    0.66340    0.87100    1.000
    C370     C        0.98540    0.62720    0.85990    1.000
    H1049    H        0.98860    0.60650    0.85420    1.000
    H1050    H        0.96990    0.62780    0.87500    1.000
    C371     C        0.00050    0.64380    0.81240    1.000
    H1051    H        0.99450    0.65510    0.79490    1.000
    H1052    H        0.00470    0.62340    0.80620    1.000
    C372     C        0.97200    0.67450    0.84260    1.000
    H1053    H        0.95560    0.67600    0.85680    1.000
    H1054    H        0.96660    0.68590    0.82490    1.000
    H1055    H        0.37360    0.93600    0.83890    1.000
    H1056    H        0.40240    0.93960    0.78560    1.000
    H1057    H        0.47050    0.03300    0.75460    1.000
    H1058    H        0.48490    0.07940    0.79000    1.000
    C373     C        0.41830    0.05570    0.79480    1.000
    H1059    H        0.41110    0.06520    0.77660    1.000
    H1060    H        0.40250    0.05680    0.80960    1.000
    N63      N        0.47615    0.14391    0.83458    1.000
    C374     C        0.42580    0.02300    0.78840    1.000
    H1061    H        0.41390    0.01020    0.80120    1.000
    H1062    H        0.42090    0.01830    0.76780    1.000
    C375     C        0.40530    0.10680    0.88140    1.000
    H1063    H        0.42310    0.11660    0.88900    1.000
    H1064    H        0.41060    0.08630    0.87650    1.000
    H1065    H        0.40380    0.16340    0.87100    1.000
    C376     C        0.48540    0.12720    0.85990    1.000
    H1066    H        0.48860    0.10650    0.85420    1.000
    H1067    H        0.46990    0.12780    0.87500    1.000
    C377     C        0.50050    0.14380    0.81240    1.000
    H1068    H        0.49450    0.15510    0.79490    1.000
    H1069    H        0.50470    0.12340    0.80620    1.000
    C378     C        0.47200    0.17450    0.84260    1.000
    H1070    H        0.45560    0.17600    0.85680    1.000
    H1071    H        0.46660    0.18590    0.82490    1.000
    H1072    H        0.37360    0.43600    0.33890    1.000
    H1073    H        0.40240    0.43960    0.28560    1.000
    H1074    H        0.47050    0.53300    0.25460    1.000
    H1075    H        0.48490    0.57940    0.29000    1.000
    C379     C        0.41830    0.55570    0.29480    1.000
    H1076    H        0.41110    0.56520    0.27660    1.000
    H1077    H        0.40250    0.55680    0.30960    1.000
    N64      N        0.47615    0.64391    0.33458    1.000
    C380     C        0.42580    0.52300    0.28840    1.000
    H1078    H        0.41390    0.51020    0.30120    1.000
    H1079    H        0.42090    0.51830    0.26780    1.000
    C381     C        0.40530    0.60680    0.38140    1.000
    H1080    H        0.42310    0.61660    0.38900    1.000
    H1081    H        0.41060    0.58630    0.37650    1.000
    H1082    H        0.40380    0.66340    0.37100    1.000
    C382     C        0.48540    0.62720    0.35990    1.000
    H1083    H        0.48860    0.60650    0.35420    1.000
    H1084    H        0.46990    0.62780    0.37500    1.000
    C383     C        0.50050    0.64380    0.31240    1.000
    H1085    H        0.49450    0.65510    0.29490    1.000
    H1086    H        0.50470    0.62340    0.30620    1.000
    C384     C        0.47200    0.67450    0.34260    1.000
    H1087    H        0.45560    0.67600    0.35680    1.000
    H1088    H        0.46660    0.68590    0.32490    1.000
    H1089    H        0.93600    0.33890    0.87360    1.000
    H1090    H        0.93960    0.28560    0.90240    1.000
    H1091    H        0.03300    0.25460    0.97050    1.000
    H1092    H        0.07940    0.29000    0.98490    1.000
    C385     C        0.05570    0.29480    0.91830    1.000
    H1093    H        0.06520    0.27660    0.91110    1.000
    H1094    H        0.05680    0.30960    0.90250    1.000
    N65      N        0.14391    0.33458    0.97615    1.000
    C386     C        0.02300    0.28840    0.92580    1.000
    H1095    H        0.01020    0.30120    0.91390    1.000
    H1096    H        0.01830    0.26780    0.92090    1.000
    C387     C        0.10680    0.38140    0.90530    1.000
    H1097    H        0.11660    0.38900    0.92310    1.000
    H1098    H        0.08630    0.37650    0.91060    1.000
    H1099    H        0.16340    0.37100    0.90380    1.000
    C388     C        0.12720    0.35990    0.98540    1.000
    H1100    H        0.10650    0.35420    0.98860    1.000
    H1101    H        0.12780    0.37500    0.96990    1.000
    C389     C        0.14380    0.31240    0.00050    1.000
    H1102    H        0.15510    0.29490    0.99450    1.000
    H1103    H        0.12340    0.30620    0.00470    1.000
    C390     C        0.17450    0.34260    0.97200    1.000
    H1104    H        0.17600    0.35680    0.95560    1.000
    H1105    H        0.18590    0.32490    0.96660    1.000
    H1106    H        0.93600    0.83890    0.37360    1.000
    H1107    H        0.93960    0.78560    0.40240    1.000
    H1108    H        0.03300    0.75460    0.47050    1.000
    H1109    H        0.07940    0.79000    0.48490    1.000
    C391     C        0.05570    0.79480    0.41830    1.000
    H1110    H        0.06520    0.77660    0.41110    1.000
    H1111    H        0.05680    0.80960    0.40250    1.000
    N66      N        0.14391    0.83458    0.47615    1.000
    C392     C        0.02300    0.78840    0.42580    1.000
    H1112    H        0.01020    0.80120    0.41390    1.000
    H1113    H        0.01830    0.76780    0.42090    1.000
    C393     C        0.10680    0.88140    0.40530    1.000
    H1114    H        0.11660    0.88900    0.42310    1.000
    H1115    H        0.08630    0.87650    0.41060    1.000
    H1116    H        0.16340    0.87100    0.40380    1.000
    C394     C        0.12720    0.85990    0.48540    1.000
    H1117    H        0.10650    0.85420    0.48860    1.000
    H1118    H        0.12780    0.87500    0.46990    1.000
    C395     C        0.14380    0.81240    0.50050    1.000
    H1119    H        0.15510    0.79490    0.49450    1.000
    H1120    H        0.12340    0.80620    0.50470    1.000
    C396     C        0.17450    0.84260    0.47200    1.000
    H1121    H        0.17600    0.85680    0.45560    1.000
    H1122    H        0.18590    0.82490    0.46660    1.000
    H1123    H        0.43600    0.33890    0.37360    1.000
    H1124    H        0.43960    0.28560    0.40240    1.000
    H1125    H        0.53300    0.25460    0.47050    1.000
    H1126    H        0.57940    0.29000    0.48490    1.000
    C397     C        0.55570    0.29480    0.41830    1.000
    H1127    H        0.56520    0.27660    0.41110    1.000
    H1128    H        0.55680    0.30960    0.40250    1.000
    N67      N        0.64391    0.33458    0.47615    1.000
    C398     C        0.52300    0.28840    0.42580    1.000
    H1129    H        0.51020    0.30120    0.41390    1.000
    H1130    H        0.51830    0.26780    0.42090    1.000
    C399     C        0.60680    0.38140    0.40530    1.000
    H1131    H        0.61660    0.38900    0.42310    1.000
    H1132    H        0.58630    0.37650    0.41060    1.000
    H1133    H        0.66340    0.37100    0.40380    1.000
    C400     C        0.62720    0.35990    0.48540    1.000
    H1134    H        0.60650    0.35420    0.48860    1.000
    H1135    H        0.62780    0.37500    0.46990    1.000
    C401     C        0.64380    0.31240    0.50050    1.000
    H1136    H        0.65510    0.29490    0.49450    1.000
    H1137    H        0.62340    0.30620    0.50470    1.000
    C402     C        0.67450    0.34260    0.47200    1.000
    H1138    H        0.67600    0.35680    0.45560    1.000
    H1139    H        0.68590    0.32490    0.46660    1.000
    H1140    H        0.43600    0.83890    0.87360    1.000
    H1141    H        0.43960    0.78560    0.90240    1.000
    H1142    H        0.53300    0.75460    0.97050    1.000
    H1143    H        0.57940    0.79000    0.98490    1.000
    C403     C        0.55570    0.79480    0.91830    1.000
    H1144    H        0.56520    0.77660    0.91110    1.000
    H1145    H        0.55680    0.80960    0.90250    1.000
    N68      N        0.64391    0.83458    0.97615    1.000
    C404     C        0.52300    0.78840    0.92580    1.000
    H1146    H        0.51020    0.80120    0.91390    1.000
    H1147    H        0.51830    0.76780    0.92090    1.000
    C405     C        0.60680    0.88140    0.90530    1.000
    H1148    H        0.61660    0.88900    0.92310    1.000
    H1149    H        0.58630    0.87650    0.91060    1.000
    H1150    H        0.66340    0.87100    0.90380    1.000
    C406     C        0.62720    0.85990    0.98540    1.000
    H1151    H        0.60650    0.85420    0.98860    1.000
    H1152    H        0.62780    0.87500    0.96990    1.000
    C407     C        0.64380    0.81240    0.00050    1.000
    H1153    H        0.65510    0.79490    0.99450    1.000
    H1154    H        0.62340    0.80620    0.00470    1.000
    C408     C        0.67450    0.84260    0.97200    1.000
    H1155    H        0.67600    0.85680    0.95560    1.000
    H1156    H        0.68590    0.82490    0.96660    1.000
    H1157    H        0.31400    0.83890    0.87640    1.000
    H1158    H        0.31040    0.78560    0.84760    1.000
    H1159    H        0.21700    0.75460    0.77950    1.000
    H1160    H        0.17060    0.79000    0.76510    1.000
    C409     C        0.19430    0.79480    0.83170    1.000
    H1161    H        0.18480    0.77660    0.83890    1.000
    H1162    H        0.19320    0.80960    0.84750    1.000
    N69      N        0.10609    0.83458    0.77385    1.000
    C410     C        0.22700    0.78840    0.82420    1.000
    H1163    H        0.23980    0.80120    0.83610    1.000
    H1164    H        0.23170    0.76780    0.82910    1.000
    C411     C        0.14320    0.88140    0.84470    1.000
    H1165    H        0.13340    0.88900    0.82690    1.000
    H1166    H        0.16370    0.87650    0.83940    1.000
    H1167    H        0.08660    0.87100    0.84620    1.000
    C412     C        0.12280    0.85990    0.76460    1.000
    H1168    H        0.14350    0.85420    0.76140    1.000
    H1169    H        0.12220    0.87500    0.78010    1.000
    C413     C        0.10620    0.81240    0.74950    1.000
    H1170    H        0.09490    0.79490    0.75550    1.000
    H1171    H        0.12660    0.80620    0.74530    1.000
    C414     C        0.07550    0.84260    0.77800    1.000
    H1172    H        0.07400    0.85680    0.79440    1.000
    H1173    H        0.06410    0.82490    0.78340    1.000
    H1174    H        0.31400    0.33890    0.37640    1.000
    H1175    H        0.31040    0.28560    0.34760    1.000
    H1176    H        0.21700    0.25460    0.27950    1.000
    H1177    H        0.17060    0.29000    0.26510    1.000
    C415     C        0.19430    0.29480    0.33170    1.000
    H1178    H        0.18480    0.27660    0.33890    1.000
    H1179    H        0.19320    0.30960    0.34750    1.000
    N70      N        0.10609    0.33458    0.27385    1.000
    C416     C        0.22700    0.28840    0.32420    1.000
    H1180    H        0.23980    0.30120    0.33610    1.000
    H1181    H        0.23170    0.26780    0.32910    1.000
    C417     C        0.14320    0.38140    0.34470    1.000
    H1182    H        0.13340    0.38900    0.32690    1.000
    H1183    H        0.16370    0.37650    0.33940    1.000
    H1184    H        0.08660    0.37100    0.34620    1.000
    C418     C        0.12280    0.35990    0.26460    1.000
    H1185    H        0.14350    0.35420    0.26140    1.000
    H1186    H        0.12220    0.37500    0.28010    1.000
    C419     C        0.10620    0.31240    0.24950    1.000
    H1187    H        0.09490    0.29490    0.25550    1.000
    H1188    H        0.12660    0.30620    0.24530    1.000
    C420     C        0.07550    0.34260    0.27800    1.000
    H1189    H        0.07400    0.35680    0.29440    1.000
    H1190    H        0.06410    0.32490    0.28340    1.000
    H1191    H        0.81400    0.83890    0.37640    1.000
    H1192    H        0.81040    0.78560    0.34760    1.000
    H1193    H        0.71700    0.75460    0.27950    1.000
    H1194    H        0.67060    0.79000    0.26510    1.000
    C421     C        0.69430    0.79480    0.33170    1.000
    H1195    H        0.68480    0.77660    0.33890    1.000
    H1196    H        0.69320    0.80960    0.34750    1.000
    N71      N        0.60609    0.83458    0.27385    1.000
    C422     C        0.72700    0.78840    0.32420    1.000
    H1197    H        0.73980    0.80120    0.33610    1.000
    H1198    H        0.73170    0.76780    0.32910    1.000
    C423     C        0.64320    0.88140    0.34470    1.000
    H1199    H        0.63340    0.88900    0.32690    1.000
    H1200    H        0.66370    0.87650    0.33940    1.000
    H1201    H        0.58660    0.87100    0.34620    1.000
    C424     C        0.62280    0.85990    0.26460    1.000
    H1202    H        0.64350    0.85420    0.26140    1.000
    H1203    H        0.62220    0.87500    0.28010    1.000
    C425     C        0.60620    0.81240    0.24950    1.000
    H1204    H        0.59490    0.79490    0.25550    1.000
    H1205    H        0.62660    0.80620    0.24530    1.000
    C426     C        0.57550    0.84260    0.27800    1.000
    H1206    H        0.57400    0.85680    0.29440    1.000
    H1207    H        0.56410    0.82490    0.28340    1.000
    H1208    H        0.81400    0.33890    0.87640    1.000
    H1209    H        0.81040    0.28560    0.84760    1.000
    H1210    H        0.71700    0.25460    0.77950    1.000
    H1211    H        0.67060    0.29000    0.76510    1.000
    C427     C        0.69430    0.29480    0.83170    1.000
    H1212    H        0.68480    0.27660    0.83890    1.000
    H1213    H        0.69320    0.30960    0.84750    1.000
    N72      N        0.60609    0.33458    0.77385    1.000
    C428     C        0.72700    0.28840    0.82420    1.000
    H1214    H        0.73980    0.30120    0.83610    1.000
    H1215    H        0.73170    0.26780    0.82910    1.000
    C429     C        0.64320    0.38140    0.84470    1.000
    H1216    H        0.63340    0.38900    0.82690    1.000
    H1217    H        0.66370    0.37650    0.83940    1.000
    H1218    H        0.58660    0.37100    0.84620    1.000
    C430     C        0.62280    0.35990    0.76460    1.000
    H1219    H        0.64350    0.35420    0.76140    1.000
    H1220    H        0.62220    0.37500    0.78010    1.000
    C431     C        0.60620    0.31240    0.74950    1.000
    H1221    H        0.59490    0.29490    0.75550    1.000
    H1222    H        0.62660    0.30620    0.74530    1.000
    C432     C        0.57550    0.34260    0.77800    1.000
    H1223    H        0.57400    0.35680    0.79440    1.000
    H1224    H        0.56410    0.32490    0.78340    1.000
    H1225    H        0.81400    0.91110    0.37360    1.000
    H1226    H        0.81040    0.96440    0.40240    1.000
    H1227    H        0.71700    0.99540    0.47050    1.000
    H1228    H        0.67060    0.96000    0.48490    1.000
    C433     C        0.69430    0.95520    0.41830    1.000
    H1229    H        0.68480    0.97340    0.41110    1.000
    H1230    H        0.69320    0.94040    0.40250    1.000
    N73      N        0.60609    0.91542    0.47615    1.000
    C434     C        0.72700    0.96160    0.42580    1.000
    H1231    H        0.73980    0.94880    0.41390    1.000
    H1232    H        0.73170    0.98220    0.42090    1.000
    C435     C        0.64320    0.86860    0.40530    1.000
    H1233    H        0.63340    0.86100    0.42310    1.000
    H1234    H        0.66370    0.87350    0.41060    1.000
    H1235    H        0.58660    0.87900    0.40380    1.000
    C436     C        0.62280    0.89010    0.48540    1.000
    H1236    H        0.64350    0.89580    0.48860    1.000
    H1237    H        0.62220    0.87500    0.46990    1.000
    C437     C        0.60620    0.93760    0.50050    1.000
    H1238    H        0.59490    0.95510    0.49450    1.000
    H1239    H        0.62660    0.94380    0.50470    1.000
    C438     C        0.57550    0.90740    0.47200    1.000
    H1240    H        0.57400    0.89320    0.45560    1.000
    H1241    H        0.56410    0.92510    0.46660    1.000
    H1242    H        0.81400    0.41110    0.87360    1.000
    H1243    H        0.81040    0.46440    0.90240    1.000
    H1244    H        0.71700    0.49540    0.97050    1.000
    H1245    H        0.67060    0.46000    0.98490    1.000
    C439     C        0.69430    0.45520    0.91830    1.000
    H1246    H        0.68480    0.47340    0.91110    1.000
    H1247    H        0.69320    0.44040    0.90250    1.000
    N74      N        0.60609    0.41542    0.97615    1.000
    C440     C        0.72700    0.46160    0.92580    1.000
    H1248    H        0.73980    0.44880    0.91390    1.000
    H1249    H        0.73170    0.48220    0.92090    1.000
    C441     C        0.64320    0.36860    0.90530    1.000
    H1250    H        0.63340    0.36100    0.92310    1.000
    H1251    H        0.66370    0.37350    0.91060    1.000
    H1252    H        0.58660    0.37900    0.90380    1.000
    C442     C        0.62280    0.39010    0.98540    1.000
    H1253    H        0.64350    0.39580    0.98860    1.000
    H1254    H        0.62220    0.37500    0.96990    1.000
    C443     C        0.60620    0.43760    0.00050    1.000
    H1255    H        0.59490    0.45510    0.99450    1.000
    H1256    H        0.62660    0.44380    0.00470    1.000
    C444     C        0.57550    0.40740    0.97200    1.000
    H1257    H        0.57400    0.39320    0.95560    1.000
    H1258    H        0.56410    0.42510    0.96660    1.000
    H1259    H        0.31400    0.91110    0.87360    1.000
    H1260    H        0.31040    0.96440    0.90240    1.000
    H1261    H        0.21700    0.99540    0.97050    1.000
    H1262    H        0.17060    0.96000    0.98490    1.000
    C445     C        0.19430    0.95520    0.91830    1.000
    H1263    H        0.18480    0.97340    0.91110    1.000
    H1264    H        0.19320    0.94040    0.90250    1.000
    N75      N        0.10609    0.91542    0.97615    1.000
    C446     C        0.22700    0.96160    0.92580    1.000
    H1265    H        0.23980    0.94880    0.91390    1.000
    H1266    H        0.23170    0.98220    0.92090    1.000
    C447     C        0.14320    0.86860    0.90530    1.000
    H1267    H        0.13340    0.86100    0.92310    1.000
    H1268    H        0.16370    0.87350    0.91060    1.000
    H1269    H        0.08660    0.87900    0.90380    1.000
    C448     C        0.12280    0.89010    0.98540    1.000
    H1270    H        0.14350    0.89580    0.98860    1.000
    H1271    H        0.12220    0.87500    0.96990    1.000
    C449     C        0.10620    0.93760    0.00050    1.000
    H1272    H        0.09490    0.95510    0.99450    1.000
    H1273    H        0.12660    0.94380    0.00470    1.000
    C450     C        0.07550    0.90740    0.97200    1.000
    H1274    H        0.07400    0.89320    0.95560    1.000
    H1275    H        0.06410    0.92510    0.96660    1.000
    H1276    H        0.31400    0.41110    0.37360    1.000
    H1277    H        0.31040    0.46440    0.40240    1.000
    H1278    H        0.21700    0.49540    0.47050    1.000
    H1279    H        0.17060    0.46000    0.48490    1.000
    C451     C        0.19430    0.45520    0.41830    1.000
    H1280    H        0.18480    0.47340    0.41110    1.000
    H1281    H        0.19320    0.44040    0.40250    1.000
    N76      N        0.10609    0.41542    0.47615    1.000
    C452     C        0.22700    0.46160    0.42580    1.000
    H1282    H        0.23980    0.44880    0.41390    1.000
    H1283    H        0.23170    0.48220    0.42090    1.000
    C453     C        0.14320    0.36860    0.40530    1.000
    H1284    H        0.13340    0.36100    0.42310    1.000
    H1285    H        0.16370    0.37350    0.41060    1.000
    H1286    H        0.08660    0.37900    0.40380    1.000
    C454     C        0.12280    0.39010    0.48540    1.000
    H1287    H        0.14350    0.39580    0.48860    1.000
    H1288    H        0.12220    0.37500    0.46990    1.000
    C455     C        0.10620    0.43760    0.50050    1.000
    H1289    H        0.09490    0.45510    0.49450    1.000
    H1290    H        0.12660    0.44380    0.50470    1.000
    C456     C        0.07550    0.40740    0.47200    1.000
    H1291    H        0.07400    0.39320    0.45560    1.000
    H1292    H        0.06410    0.42510    0.46660    1.000
    H1293    H        0.43600    0.41110    0.37640    1.000
    H1294    H        0.43960    0.46440    0.34760    1.000
    H1295    H        0.53300    0.49540    0.27950    1.000
    H1296    H        0.57940    0.46000    0.26510    1.000
    C457     C        0.55570    0.45520    0.33170    1.000
    H1297    H        0.56520    0.47340    0.33890    1.000
    H1298    H        0.55680    0.44040    0.34750    1.000
    N77      N        0.64391    0.41542    0.27385    1.000
    C458     C        0.52300    0.46160    0.32420    1.000
    H1299    H        0.51020    0.44880    0.33610    1.000
    H1300    H        0.51830    0.48220    0.32910    1.000
    C459     C        0.60680    0.36860    0.34470    1.000
    H1301    H        0.61660    0.36100    0.32690    1.000
    H1302    H        0.58630    0.37350    0.33940    1.000
    H1303    H        0.66340    0.37900    0.34620    1.000
    C460     C        0.62720    0.39010    0.26460    1.000
    H1304    H        0.60650    0.39580    0.26140    1.000
    H1305    H        0.62780    0.37500    0.28010    1.000
    C461     C        0.64380    0.43760    0.24950    1.000
    H1306    H        0.65510    0.45510    0.25550    1.000
    H1307    H        0.62340    0.44380    0.24530    1.000
    C462     C        0.67450    0.40740    0.27800    1.000
    H1308    H        0.67600    0.39320    0.29440    1.000
    H1309    H        0.68590    0.42510    0.28340    1.000
    H1310    H        0.43600    0.91110    0.87640    1.000
    H1311    H        0.43960    0.96440    0.84760    1.000
    H1312    H        0.53300    0.99540    0.77950    1.000
    H1313    H        0.57940    0.96000    0.76510    1.000
    C463     C        0.55570    0.95520    0.83170    1.000
    H1314    H        0.56520    0.97340    0.83890    1.000
    H1315    H        0.55680    0.94040    0.84750    1.000
    N78      N        0.64391    0.91542    0.77385    1.000
    C464     C        0.52300    0.96160    0.82420    1.000
    H1316    H        0.51020    0.94880    0.83610    1.000
    H1317    H        0.51830    0.98220    0.82910    1.000
    C465     C        0.60680    0.86860    0.84470    1.000
    H1318    H        0.61660    0.86100    0.82690    1.000
    H1319    H        0.58630    0.87350    0.83940    1.000
    H1320    H        0.66340    0.87900    0.84620    1.000
    C466     C        0.62720    0.89010    0.76460    1.000
    H1321    H        0.60650    0.89580    0.76140    1.000
    H1322    H        0.62780    0.87500    0.78010    1.000
    C467     C        0.64380    0.93760    0.74950    1.000
    H1323    H        0.65510    0.95510    0.75550    1.000
    H1324    H        0.62340    0.94380    0.74530    1.000
    C468     C        0.67450    0.90740    0.77800    1.000
    H1325    H        0.67600    0.89320    0.79440    1.000
    H1326    H        0.68590    0.92510    0.78340    1.000
    H1327    H        0.93600    0.41110    0.87640    1.000
    H1328    H        0.93960    0.46440    0.84760    1.000
    H1329    H        0.03300    0.49540    0.77950    1.000
    H1330    H        0.07940    0.46000    0.76510    1.000
    C469     C        0.05570    0.45520    0.83170    1.000
    H1331    H        0.06520    0.47340    0.83890    1.000
    H1332    H        0.05680    0.44040    0.84750    1.000
    N79      N        0.14391    0.41542    0.77385    1.000
    C470     C        0.02300    0.46160    0.82420    1.000
    H1333    H        0.01020    0.44880    0.83610    1.000
    H1334    H        0.01830    0.48220    0.82910    1.000
    C471     C        0.10680    0.36860    0.84470    1.000
    H1335    H        0.11660    0.36100    0.82690    1.000
    H1336    H        0.08630    0.37350    0.83940    1.000
    H1337    H        0.16340    0.37900    0.84620    1.000
    C472     C        0.12720    0.39010    0.76460    1.000
    H1338    H        0.10650    0.39580    0.76140    1.000
    H1339    H        0.12780    0.37500    0.78010    1.000
    C473     C        0.14380    0.43760    0.74950    1.000
    H1340    H        0.15510    0.45510    0.75550    1.000
    H1341    H        0.12340    0.44380    0.74530    1.000
    C474     C        0.17450    0.40740    0.77800    1.000
    H1342    H        0.17600    0.39320    0.79440    1.000
    H1343    H        0.18590    0.42510    0.78340    1.000
    H1344    H        0.93600    0.91110    0.37640    1.000
    H1345    H        0.93960    0.96440    0.34760    1.000
    H1346    H        0.03300    0.99540    0.27950    1.000
    H1347    H        0.07940    0.96000    0.26510    1.000
    C475     C        0.05570    0.95520    0.33170    1.000
    H1348    H        0.06520    0.97340    0.33890    1.000
    H1349    H        0.05680    0.94040    0.34750    1.000
    N80      N        0.14391    0.91542    0.27385    1.000
    C476     C        0.02300    0.96160    0.32420    1.000
    H1350    H        0.01020    0.94880    0.33610    1.000
    H1351    H        0.01830    0.98220    0.32910    1.000
    C477     C        0.10680    0.86860    0.34470    1.000
    H1352    H        0.11660    0.86100    0.32690    1.000
    H1353    H        0.08630    0.87350    0.33940    1.000
    H1354    H        0.16340    0.87900    0.34620    1.000
    C478     C        0.12720    0.89010    0.26460    1.000
    H1355    H        0.10650    0.89580    0.26140    1.000
    H1356    H        0.12780    0.87500    0.28010    1.000
    C479     C        0.14380    0.93760    0.24950    1.000
    H1357    H        0.15510    0.95510    0.25550    1.000
    H1358    H        0.12340    0.94380    0.24530    1.000
    C480     C        0.17450    0.90740    0.27800    1.000
    H1359    H        0.17600    0.89320    0.29440    1.000
    H1360    H        0.18590    0.92510    0.28340    1.000
    H1361    H        0.83890    0.87640    0.31400    1.000
    H1362    H        0.78560    0.84760    0.31040    1.000
    H1363    H        0.75460    0.77950    0.21700    1.000
    H1364    H        0.79000    0.76510    0.17060    1.000
    C481     C        0.79480    0.83170    0.19430    1.000
    H1365    H        0.77660    0.83890    0.18480    1.000
    H1366    H        0.80960    0.84750    0.19320    1.000
    N81      N        0.83458    0.77385    0.10609    1.000
    C482     C        0.78840    0.82420    0.22700    1.000
    H1367    H        0.80120    0.83610    0.23980    1.000
    H1368    H        0.76780    0.82910    0.23170    1.000
    C483     C        0.88140    0.84470    0.14320    1.000
    H1369    H        0.88900    0.82690    0.13340    1.000
    H1370    H        0.87650    0.83940    0.16370    1.000
    H1371    H        0.87100    0.84620    0.08660    1.000
    C484     C        0.85990    0.76460    0.12280    1.000
    H1372    H        0.85420    0.76140    0.14350    1.000
    H1373    H        0.87500    0.78010    0.12220    1.000
    C485     C        0.81240    0.74950    0.10620    1.000
    H1374    H        0.79490    0.75550    0.09490    1.000
    H1375    H        0.80620    0.74530    0.12660    1.000
    C486     C        0.84260    0.77800    0.07550    1.000
    H1376    H        0.85680    0.79440    0.07400    1.000
    H1377    H        0.82490    0.78340    0.06410    1.000
    H1378    H        0.83890    0.37640    0.81400    1.000
    H1379    H        0.78560    0.34760    0.81040    1.000
    H1380    H        0.75460    0.27950    0.71700    1.000
    H1381    H        0.79000    0.26510    0.67060    1.000
    C487     C        0.79480    0.33170    0.69430    1.000
    H1382    H        0.77660    0.33890    0.68480    1.000
    H1383    H        0.80960    0.34750    0.69320    1.000
    N82      N        0.83458    0.27385    0.60609    1.000
    C488     C        0.78840    0.32420    0.72700    1.000
    H1384    H        0.80120    0.33610    0.73980    1.000
    H1385    H        0.76780    0.32910    0.73170    1.000
    C489     C        0.88140    0.34470    0.64320    1.000
    H1386    H        0.88900    0.32690    0.63340    1.000
    H1387    H        0.87650    0.33940    0.66370    1.000
    H1388    H        0.87100    0.34620    0.58660    1.000
    C490     C        0.85990    0.26460    0.62280    1.000
    H1389    H        0.85420    0.26140    0.64350    1.000
    H1390    H        0.87500    0.28010    0.62220    1.000
    C491     C        0.81240    0.24950    0.60620    1.000
    H1391    H        0.79490    0.25550    0.59490    1.000
    H1392    H        0.80620    0.24530    0.62660    1.000
    C492     C        0.84260    0.27800    0.57550    1.000
    H1393    H        0.85680    0.29440    0.57400    1.000
    H1394    H        0.82490    0.28340    0.56410    1.000
    H1395    H        0.33890    0.87640    0.81400    1.000
    H1396    H        0.28560    0.84760    0.81040    1.000
    H1397    H        0.25460    0.77950    0.71700    1.000
    H1398    H        0.29000    0.76510    0.67060    1.000
    C493     C        0.29480    0.83170    0.69430    1.000
    H1399    H        0.27660    0.83890    0.68480    1.000
    H1400    H        0.30960    0.84750    0.69320    1.000
    N83      N        0.33458    0.77385    0.60609    1.000
    C494     C        0.28840    0.82420    0.72700    1.000
    H1401    H        0.30120    0.83610    0.73980    1.000
    H1402    H        0.26780    0.82910    0.73170    1.000
    C495     C        0.38140    0.84470    0.64320    1.000
    H1403    H        0.38900    0.82690    0.63340    1.000
    H1404    H        0.37650    0.83940    0.66370    1.000
    H1405    H        0.37100    0.84620    0.58660    1.000
    C496     C        0.35990    0.76460    0.62280    1.000
    H1406    H        0.35420    0.76140    0.64350    1.000
    H1407    H        0.37500    0.78010    0.62220    1.000
    C497     C        0.31240    0.74950    0.60620    1.000
    H1408    H        0.29490    0.75550    0.59490    1.000
    H1409    H        0.30620    0.74530    0.62660    1.000
    C498     C        0.34260    0.77800    0.57550    1.000
    H1410    H        0.35680    0.79440    0.57400    1.000
    H1411    H        0.32490    0.78340    0.56410    1.000
    H1412    H        0.33890    0.37640    0.31400    1.000
    H1413    H        0.28560    0.34760    0.31040    1.000
    H1414    H        0.25460    0.27950    0.21700    1.000
    H1415    H        0.29000    0.26510    0.17060    1.000
    C499     C        0.29480    0.33170    0.19430    1.000
    H1416    H        0.27660    0.33890    0.18480    1.000
    H1417    H        0.30960    0.34750    0.19320    1.000
    N84      N        0.33458    0.27385    0.10609    1.000
    C500     C        0.28840    0.32420    0.22700    1.000
    H1418    H        0.30120    0.33610    0.23980    1.000
    H1419    H        0.26780    0.32910    0.23170    1.000
    C501     C        0.38140    0.34470    0.14320    1.000
    H1420    H        0.38900    0.32690    0.13340    1.000
    H1421    H        0.37650    0.33940    0.16370    1.000
    H1422    H        0.37100    0.34620    0.08660    1.000
    C502     C        0.35990    0.26460    0.12280    1.000
    H1423    H        0.35420    0.26140    0.14350    1.000
    H1424    H        0.37500    0.28010    0.12220    1.000
    C503     C        0.31240    0.24950    0.10620    1.000
    H1425    H        0.29490    0.25550    0.09490    1.000
    H1426    H        0.30620    0.24530    0.12660    1.000
    C504     C        0.34260    0.27800    0.07550    1.000
    H1427    H        0.35680    0.29440    0.07400    1.000
    H1428    H        0.32490    0.28340    0.06410    1.000
    H1429    H        0.33890    0.87360    0.93600    1.000
    H1430    H        0.28560    0.90240    0.93960    1.000
    H1431    H        0.25460    0.97050    0.03300    1.000
    H1432    H        0.29000    0.98490    0.07940    1.000
    C505     C        0.29480    0.91830    0.05570    1.000
    H1433    H        0.27660    0.91110    0.06520    1.000
    H1434    H        0.30960    0.90250    0.05680    1.000
    N85      N        0.33458    0.97615    0.14391    1.000
    C506     C        0.28840    0.92580    0.02300    1.000
    H1435    H        0.30120    0.91390    0.01020    1.000
    H1436    H        0.26780    0.92090    0.01830    1.000
    C507     C        0.38140    0.90530    0.10680    1.000
    H1437    H        0.38900    0.92310    0.11660    1.000
    H1438    H        0.37650    0.91060    0.08630    1.000
    H1439    H        0.37100    0.90380    0.16340    1.000
    C508     C        0.35990    0.98540    0.12720    1.000
    H1440    H        0.35420    0.98860    0.10650    1.000
    H1441    H        0.37500    0.96990    0.12780    1.000
    C509     C        0.31240    0.00050    0.14380    1.000
    H1442    H        0.29490    0.99450    0.15510    1.000
    H1443    H        0.30620    0.00470    0.12340    1.000
    C510     C        0.34260    0.97200    0.17450    1.000
    H1444    H        0.35680    0.95560    0.17600    1.000
    H1445    H        0.32490    0.96660    0.18590    1.000
    H1446    H        0.33890    0.37360    0.43600    1.000
    H1447    H        0.28560    0.40240    0.43960    1.000
    H1448    H        0.25460    0.47050    0.53300    1.000
    H1449    H        0.29000    0.48490    0.57940    1.000
    C511     C        0.29480    0.41830    0.55570    1.000
    H1450    H        0.27660    0.41110    0.56520    1.000
    H1451    H        0.30960    0.40250    0.55680    1.000
    N86      N        0.33458    0.47615    0.64391    1.000
    C512     C        0.28840    0.42580    0.52300    1.000
    H1452    H        0.30120    0.41390    0.51020    1.000
    H1453    H        0.26780    0.42090    0.51830    1.000
    C513     C        0.38140    0.40530    0.60680    1.000
    H1454    H        0.38900    0.42310    0.61660    1.000
    H1455    H        0.37650    0.41060    0.58630    1.000
    H1456    H        0.37100    0.40380    0.66340    1.000
    C514     C        0.35990    0.48540    0.62720    1.000
    H1457    H        0.35420    0.48860    0.60650    1.000
    H1458    H        0.37500    0.46990    0.62780    1.000
    C515     C        0.31240    0.50050    0.64380    1.000
    H1459    H        0.29490    0.49450    0.65510    1.000
    H1460    H        0.30620    0.50470    0.62340    1.000
    C516     C        0.34260    0.47200    0.67450    1.000
    H1461    H        0.35680    0.45560    0.67600    1.000
    H1462    H        0.32490    0.46660    0.68590    1.000
    H1463    H        0.83890    0.87360    0.43600    1.000
    H1464    H        0.78560    0.90240    0.43960    1.000
    H1465    H        0.75460    0.97050    0.53300    1.000
    H1466    H        0.79000    0.98490    0.57940    1.000
    C517     C        0.79480    0.91830    0.55570    1.000
    H1467    H        0.77660    0.91110    0.56520    1.000
    H1468    H        0.80960    0.90250    0.55680    1.000
    N87      N        0.83458    0.97615    0.64391    1.000
    C518     C        0.78840    0.92580    0.52300    1.000
    H1469    H        0.80120    0.91390    0.51020    1.000
    H1470    H        0.76780    0.92090    0.51830    1.000
    C519     C        0.88140    0.90530    0.60680    1.000
    H1471    H        0.88900    0.92310    0.61660    1.000
    H1472    H        0.87650    0.91060    0.58630    1.000
    H1473    H        0.87100    0.90380    0.66340    1.000
    C520     C        0.85990    0.98540    0.62720    1.000
    H1474    H        0.85420    0.98860    0.60650    1.000
    H1475    H        0.87500    0.96990    0.62780    1.000
    C521     C        0.81240    0.00050    0.64380    1.000
    H1476    H        0.79490    0.99450    0.65510    1.000
    H1477    H        0.80620    0.00470    0.62340    1.000
    C522     C        0.84260    0.97200    0.67450    1.000
    H1478    H        0.85680    0.95560    0.67600    1.000
    H1479    H        0.82490    0.96660    0.68590    1.000
    H1480    H        0.83890    0.37360    0.93600    1.000
    H1481    H        0.78560    0.40240    0.93960    1.000
    H1482    H        0.75460    0.47050    0.03300    1.000
    H1483    H        0.79000    0.48490    0.07940    1.000
    C523     C        0.79480    0.41830    0.05570    1.000
    H1484    H        0.77660    0.41110    0.06520    1.000
    H1485    H        0.80960    0.40250    0.05680    1.000
    N88      N        0.83458    0.47615    0.14391    1.000
    C524     C        0.78840    0.42580    0.02300    1.000
    H1486    H        0.80120    0.41390    0.01020    1.000
    H1487    H        0.76780    0.42090    0.01830    1.000
    C525     C        0.88140    0.40530    0.10680    1.000
    H1488    H        0.88900    0.42310    0.11660    1.000
    H1489    H        0.87650    0.41060    0.08630    1.000
    H1490    H        0.87100    0.40380    0.16340    1.000
    C526     C        0.85990    0.48540    0.12720    1.000
    H1491    H        0.85420    0.48860    0.10650    1.000
    H1492    H        0.87500    0.46990    0.12780    1.000
    C527     C        0.81240    0.50050    0.14380    1.000
    H1493    H        0.79490    0.49450    0.15510    1.000
    H1494    H        0.80620    0.50470    0.12340    1.000
    C528     C        0.84260    0.47200    0.17450    1.000
    H1495    H        0.85680    0.45560    0.17600    1.000
    H1496    H        0.82490    0.46660    0.18590    1.000
    H1497    H        0.41110    0.37640    0.43600    1.000
    H1498    H        0.46440    0.34760    0.43960    1.000
    H1499    H        0.49540    0.27950    0.53300    1.000
    H1500    H        0.46000    0.26510    0.57940    1.000
    C529     C        0.45520    0.33170    0.55570    1.000
    H1501    H        0.47340    0.33890    0.56520    1.000
    H1502    H        0.44040    0.34750    0.55680    1.000
    N89      N        0.41542    0.27385    0.64391    1.000
    C530     C        0.46160    0.32420    0.52300    1.000
    H1503    H        0.44880    0.33610    0.51020    1.000
    H1504    H        0.48220    0.32910    0.51830    1.000
    C531     C        0.36860    0.34470    0.60680    1.000
    H1505    H        0.36100    0.32690    0.61660    1.000
    H1506    H        0.37350    0.33940    0.58630    1.000
    H1507    H        0.37900    0.34620    0.66340    1.000
    C532     C        0.39010    0.26460    0.62720    1.000
    H1508    H        0.39580    0.26140    0.60650    1.000
    H1509    H        0.37500    0.28010    0.62780    1.000
    C533     C        0.43760    0.24950    0.64380    1.000
    H1510    H        0.45510    0.25550    0.65510    1.000
    H1511    H        0.44380    0.24530    0.62340    1.000
    C534     C        0.40740    0.27800    0.67450    1.000
    H1512    H        0.39320    0.29440    0.67600    1.000
    H1513    H        0.42510    0.28340    0.68590    1.000
    H1514    H        0.41110    0.87640    0.93600    1.000
    H1515    H        0.46440    0.84760    0.93960    1.000
    H1516    H        0.49540    0.77950    0.03300    1.000
    H1517    H        0.46000    0.76510    0.07940    1.000
    C535     C        0.45520    0.83170    0.05570    1.000
    H1518    H        0.47340    0.83890    0.06520    1.000
    H1519    H        0.44040    0.84750    0.05680    1.000
    N90      N        0.41542    0.77385    0.14391    1.000
    C536     C        0.46160    0.82420    0.02300    1.000
    H1520    H        0.44880    0.83610    0.01020    1.000
    H1521    H        0.48220    0.82910    0.01830    1.000
    C537     C        0.36860    0.84470    0.10680    1.000
    H1522    H        0.36100    0.82690    0.11660    1.000
    H1523    H        0.37350    0.83940    0.08630    1.000
    H1524    H        0.37900    0.84620    0.16340    1.000
    C538     C        0.39010    0.76460    0.12720    1.000
    H1525    H        0.39580    0.76140    0.10650    1.000
    H1526    H        0.37500    0.78010    0.12780    1.000
    C539     C        0.43760    0.74950    0.14380    1.000
    H1527    H        0.45510    0.75550    0.15510    1.000
    H1528    H        0.44380    0.74530    0.12340    1.000
    C540     C        0.40740    0.77800    0.17450    1.000
    H1529    H        0.39320    0.79440    0.17600    1.000
    H1530    H        0.42510    0.78340    0.18590    1.000
    H1531    H        0.91110    0.37640    0.93600    1.000
    H1532    H        0.96440    0.34760    0.93960    1.000
    H1533    H        0.99540    0.27950    0.03300    1.000
    H1534    H        0.96000    0.26510    0.07940    1.000
    C541     C        0.95520    0.33170    0.05570    1.000
    H1535    H        0.97340    0.33890    0.06520    1.000
    H1536    H        0.94040    0.34750    0.05680    1.000
    N91      N        0.91542    0.27385    0.14391    1.000
    C542     C        0.96160    0.32420    0.02300    1.000
    H1537    H        0.94880    0.33610    0.01020    1.000
    H1538    H        0.98220    0.32910    0.01830    1.000
    C543     C        0.86860    0.34470    0.10680    1.000
    H1539    H        0.86100    0.32690    0.11660    1.000
    H1540    H        0.87350    0.33940    0.08630    1.000
    H1541    H        0.87900    0.34620    0.16340    1.000
    C544     C        0.89010    0.26460    0.12720    1.000
    H1542    H        0.89580    0.26140    0.10650    1.000
    H1543    H        0.87500    0.28010    0.12780    1.000
    C545     C        0.93760    0.24950    0.14380    1.000
    H1544    H        0.95510    0.25550    0.15510    1.000
    H1545    H        0.94380    0.24530    0.12340    1.000
    C546     C        0.90740    0.27800    0.17450    1.000
    H1546    H        0.89320    0.29440    0.17600    1.000
    H1547    H        0.92510    0.28340    0.18590    1.000
    H1548    H        0.91110    0.87640    0.43600    1.000
    H1549    H        0.96440    0.84760    0.43960    1.000
    H1550    H        0.99540    0.77950    0.53300    1.000
    H1551    H        0.96000    0.76510    0.57940    1.000
    C547     C        0.95520    0.83170    0.55570    1.000
    H1552    H        0.97340    0.83890    0.56520    1.000
    H1553    H        0.94040    0.84750    0.55680    1.000
    N92      N        0.91542    0.77385    0.64391    1.000
    C548     C        0.96160    0.82420    0.52300    1.000
    H1554    H        0.94880    0.83610    0.51020    1.000
    H1555    H        0.98220    0.82910    0.51830    1.000
    C549     C        0.86860    0.84470    0.60680    1.000
    H1556    H        0.86100    0.82690    0.61660    1.000
    H1557    H        0.87350    0.83940    0.58630    1.000
    H1558    H        0.87900    0.84620    0.66340    1.000
    C550     C        0.89010    0.76460    0.62720    1.000
    H1559    H        0.89580    0.76140    0.60650    1.000
    H1560    H        0.87500    0.78010    0.62780    1.000
    C551     C        0.93760    0.74950    0.64380    1.000
    H1561    H        0.95510    0.75550    0.65510    1.000
    H1562    H        0.94380    0.74530    0.62340    1.000
    C552     C        0.90740    0.77800    0.67450    1.000
    H1563    H        0.89320    0.79440    0.67600    1.000
    H1564    H        0.92510    0.78340    0.68590    1.000
    H1565    H        0.91110    0.37360    0.81400    1.000
    H1566    H        0.96440    0.40240    0.81040    1.000
    H1567    H        0.99540    0.47050    0.71700    1.000
    H1568    H        0.96000    0.48490    0.67060    1.000
    C553     C        0.95520    0.41830    0.69430    1.000
    H1569    H        0.97340    0.41110    0.68480    1.000
    H1570    H        0.94040    0.40250    0.69320    1.000
    N93      N        0.91542    0.47615    0.60609    1.000
    C554     C        0.96160    0.42580    0.72700    1.000
    H1571    H        0.94880    0.41390    0.73980    1.000
    H1572    H        0.98220    0.42090    0.73170    1.000
    C555     C        0.86860    0.40530    0.64320    1.000
    H1573    H        0.86100    0.42310    0.63340    1.000
    H1574    H        0.87350    0.41060    0.66370    1.000
    H1575    H        0.87900    0.40380    0.58660    1.000
    C556     C        0.89010    0.48540    0.62280    1.000
    H1576    H        0.89580    0.48860    0.64350    1.000
    H1577    H        0.87500    0.46990    0.62220    1.000
    C557     C        0.93760    0.50050    0.60620    1.000
    H1578    H        0.95510    0.49450    0.59490    1.000
    H1579    H        0.94380    0.50470    0.62660    1.000
    C558     C        0.90740    0.47200    0.57550    1.000
    H1580    H        0.89320    0.45560    0.57400    1.000
    H1581    H        0.92510    0.46660    0.56410    1.000
    H1582    H        0.91110    0.87360    0.31400    1.000
    H1583    H        0.96440    0.90240    0.31040    1.000
    H1584    H        0.99540    0.97050    0.21700    1.000
    H1585    H        0.96000    0.98490    0.17060    1.000
    C559     C        0.95520    0.91830    0.19430    1.000
    H1586    H        0.97340    0.91110    0.18480    1.000
    H1587    H        0.94040    0.90250    0.19320    1.000
    N94      N        0.91542    0.97615    0.10609    1.000
    C560     C        0.96160    0.92580    0.22700    1.000
    H1588    H        0.94880    0.91390    0.23980    1.000
    H1589    H        0.98220    0.92090    0.23170    1.000
    C561     C        0.86860    0.90530    0.14320    1.000
    H1590    H        0.86100    0.92310    0.13340    1.000
    H1591    H        0.87350    0.91060    0.16370    1.000
    H1592    H        0.87900    0.90380    0.08660    1.000
    C562     C        0.89010    0.98540    0.12280    1.000
    H1593    H        0.89580    0.98860    0.14350    1.000
    H1594    H        0.87500    0.96990    0.12220    1.000
    C563     C        0.93760    0.00050    0.10620    1.000
    H1595    H        0.95510    0.99450    0.09490    1.000
    H1596    H        0.94380    0.00470    0.12660    1.000
    C564     C        0.90740    0.97200    0.07550    1.000
    H1597    H        0.89320    0.95560    0.07400    1.000
    H1598    H        0.92510    0.96660    0.06410    1.000
    H1599    H        0.41110    0.37360    0.31400    1.000
    H1600    H        0.46440    0.40240    0.31040    1.000
    H1601    H        0.49540    0.47050    0.21700    1.000
    H1602    H        0.46000    0.48490    0.17060    1.000
    C565     C        0.45520    0.41830    0.19430    1.000
    H1603    H        0.47340    0.41110    0.18480    1.000
    H1604    H        0.44040    0.40250    0.19320    1.000
    N95      N        0.41542    0.47615    0.10609    1.000
    C566     C        0.46160    0.42580    0.22700    1.000
    H1605    H        0.44880    0.41390    0.23980    1.000
    H1606    H        0.48220    0.42090    0.23170    1.000
    C567     C        0.36860    0.40530    0.14320    1.000
    H1607    H        0.36100    0.42310    0.13340    1.000
    H1608    H        0.37350    0.41060    0.16370    1.000
    H1609    H        0.37900    0.40380    0.08660    1.000
    C568     C        0.39010    0.48540    0.12280    1.000
    H1610    H        0.39580    0.48860    0.14350    1.000
    H1611    H        0.37500    0.46990    0.12220    1.000
    C569     C        0.43760    0.50050    0.10620    1.000
    H1612    H        0.45510    0.49450    0.09490    1.000
    H1613    H        0.44380    0.50470    0.12660    1.000
    C570     C        0.40740    0.47200    0.07550    1.000
    H1614    H        0.39320    0.45560    0.07400    1.000
    H1615    H        0.42510    0.46660    0.06410    1.000
    H1616    H        0.41110    0.87360    0.81400    1.000
    H1617    H        0.46440    0.90240    0.81040    1.000
    H1618    H        0.49540    0.97050    0.71700    1.000
    H1619    H        0.46000    0.98490    0.67060    1.000
    C571     C        0.45520    0.91830    0.69430    1.000
    H1620    H        0.47340    0.91110    0.68480    1.000
    H1621    H        0.44040    0.90250    0.69320    1.000
    N96      N        0.41542    0.97615    0.60609    1.000
    C572     C        0.46160    0.92580    0.72700    1.000
    H1622    H        0.44880    0.91390    0.73980    1.000
    H1623    H        0.48220    0.92090    0.73170    1.000
    C573     C        0.36860    0.90530    0.64320    1.000
    H1624    H        0.36100    0.92310    0.63340    1.000
    H1625    H        0.37350    0.91060    0.66370    1.000
    H1626    H        0.37900    0.90380    0.58660    1.000
    C574     C        0.39010    0.98540    0.62280    1.000
    H1627    H        0.39580    0.98860    0.64350    1.000
    H1628    H        0.37500    0.96990    0.62220    1.000
    C575     C        0.43760    0.00050    0.60620    1.000
    H1629    H        0.45510    0.99450    0.59490    1.000
    H1630    H        0.44380    0.00470    0.62660    1.000
    C576     C        0.40740    0.97200    0.57550    1.000
    H1631    H        0.39320    0.95560    0.57400    1.000
    H1632    H        0.42510    0.96660    0.56410    1.000
    H1633    H        0.81400    0.37360    0.91110    1.000
    H1634    H        0.81040    0.40240    0.96440    1.000
    H1635    H        0.71700    0.47050    0.99540    1.000
    H1636    H        0.67060    0.48490    0.96000    1.000
    C577     C        0.69430    0.41830    0.95520    1.000
    H1637    H        0.68480    0.41110    0.97340    1.000
    H1638    H        0.69320    0.40250    0.94040    1.000
    N97      N        0.60609    0.47615    0.91542    1.000
    C578     C        0.72700    0.42580    0.96160    1.000
    H1639    H        0.73980    0.41390    0.94880    1.000
    H1640    H        0.73170    0.42090    0.98220    1.000
    C579     C        0.64320    0.40530    0.86860    1.000
    H1641    H        0.63340    0.42310    0.86100    1.000
    H1642    H        0.66370    0.41060    0.87350    1.000
    H1643    H        0.58660    0.40380    0.87900    1.000
    C580     C        0.62280    0.48540    0.89010    1.000
    H1644    H        0.64350    0.48860    0.89580    1.000
    H1645    H        0.62220    0.46990    0.87500    1.000
    C581     C        0.60620    0.50050    0.93760    1.000
    H1646    H        0.59490    0.49450    0.95510    1.000
    H1647    H        0.62660    0.50470    0.94380    1.000
    C582     C        0.57550    0.47200    0.90740    1.000
    H1648    H        0.57400    0.45560    0.89320    1.000
    H1649    H        0.56410    0.46660    0.92510    1.000
    H1650    H        0.81400    0.87360    0.41110    1.000
    H1651    H        0.81040    0.90240    0.46440    1.000
    H1652    H        0.71700    0.97050    0.49540    1.000
    H1653    H        0.67060    0.98490    0.46000    1.000
    C583     C        0.69430    0.91830    0.45520    1.000
    H1654    H        0.68480    0.91110    0.47340    1.000
    H1655    H        0.69320    0.90250    0.44040    1.000
    N98      N        0.60609    0.97615    0.41542    1.000
    C584     C        0.72700    0.92580    0.46160    1.000
    H1656    H        0.73980    0.91390    0.44880    1.000
    H1657    H        0.73170    0.92090    0.48220    1.000
    C585     C        0.64320    0.90530    0.36860    1.000
    H1658    H        0.63340    0.92310    0.36100    1.000
    H1659    H        0.66370    0.91060    0.37350    1.000
    H1660    H        0.58660    0.90380    0.37900    1.000
    C586     C        0.62280    0.98540    0.39010    1.000
    H1661    H        0.64350    0.98860    0.39580    1.000
    H1662    H        0.62220    0.96990    0.37500    1.000
    C587     C        0.60620    0.00050    0.43760    1.000
    H1663    H        0.59490    0.99450    0.45510    1.000
    H1664    H        0.62660    0.00470    0.44380    1.000
    C588     C        0.57550    0.97200    0.40740    1.000
    H1665    H        0.57400    0.95560    0.39320    1.000
    H1666    H        0.56410    0.96660    0.42510    1.000
    H1667    H        0.31400    0.37360    0.41110    1.000
    H1668    H        0.31040    0.40240    0.46440    1.000
    H1669    H        0.21700    0.47050    0.49540    1.000
    H1670    H        0.17060    0.48490    0.46000    1.000
    C589     C        0.19430    0.41830    0.45520    1.000
    H1671    H        0.18480    0.41110    0.47340    1.000
    H1672    H        0.19320    0.40250    0.44040    1.000
    N99      N        0.10609    0.47615    0.41542    1.000
    C590     C        0.22700    0.42580    0.46160    1.000
    H1673    H        0.23980    0.41390    0.44880    1.000
    H1674    H        0.23170    0.42090    0.48220    1.000
    C591     C        0.14320    0.40530    0.36860    1.000
    H1675    H        0.13340    0.42310    0.36100    1.000
    H1676    H        0.16370    0.41060    0.37350    1.000
    H1677    H        0.08660    0.40380    0.37900    1.000
    C592     C        0.12280    0.48540    0.39010    1.000
    H1678    H        0.14350    0.48860    0.39580    1.000
    H1679    H        0.12220    0.46990    0.37500    1.000
    C593     C        0.10620    0.50050    0.43760    1.000
    H1680    H        0.09490    0.49450    0.45510    1.000
    H1681    H        0.12660    0.50470    0.44380    1.000
    C594     C        0.07550    0.47200    0.40740    1.000
    H1682    H        0.07400    0.45560    0.39320    1.000
    H1683    H        0.06410    0.46660    0.42510    1.000
    H1684    H        0.31400    0.87360    0.91110    1.000
    H1685    H        0.31040    0.90240    0.96440    1.000
    H1686    H        0.21700    0.97050    0.99540    1.000
    H1687    H        0.17060    0.98490    0.96000    1.000
    C595     C        0.19430    0.91830    0.95520    1.000
    H1688    H        0.18480    0.91110    0.97340    1.000
    H1689    H        0.19320    0.90250    0.94040    1.000
    N100     N        0.10609    0.97615    0.91542    1.000
    C596     C        0.22700    0.92580    0.96160    1.000
    H1690    H        0.23980    0.91390    0.94880    1.000
    H1691    H        0.23170    0.92090    0.98220    1.000
    C597     C        0.14320    0.90530    0.86860    1.000
    H1692    H        0.13340    0.92310    0.86100    1.000
    H1693    H        0.16370    0.91060    0.87350    1.000
    H1694    H        0.08660    0.90380    0.87900    1.000
    C598     C        0.12280    0.98540    0.89010    1.000
    H1695    H        0.14350    0.98860    0.89580    1.000
    H1696    H        0.12220    0.96990    0.87500    1.000
    C599     C        0.10620    0.00050    0.93760    1.000
    H1697    H        0.09490    0.99450    0.95510    1.000
    H1698    H        0.12660    0.00470    0.94380    1.000
    C600     C        0.07550    0.97200    0.90740    1.000
    H1699    H        0.07400    0.95560    0.89320    1.000
    H1700    H        0.06410    0.96660    0.92510    1.000
    H1701    H        0.43600    0.37640    0.41110    1.000
    H1702    H        0.43960    0.34760    0.46440    1.000
    H1703    H        0.53300    0.27950    0.49540    1.000
    H1704    H        0.57940    0.26510    0.46000    1.000
    C601     C        0.55570    0.33170    0.45520    1.000
    H1705    H        0.56520    0.33890    0.47340    1.000
    H1706    H        0.55680    0.34750    0.44040    1.000
    N101     N        0.64391    0.27385    0.41542    1.000
    C602     C        0.52300    0.32420    0.46160    1.000
    H1707    H        0.51020    0.33610    0.44880    1.000
    H1708    H        0.51830    0.32910    0.48220    1.000
    C603     C        0.60680    0.34470    0.36860    1.000
    H1709    H        0.61660    0.32690    0.36100    1.000
    H1710    H        0.58630    0.33940    0.37350    1.000
    H1711    H        0.66340    0.34620    0.37900    1.000
    C604     C        0.62720    0.26460    0.39010    1.000
    H1712    H        0.60650    0.26140    0.39580    1.000
    H1713    H        0.62780    0.28010    0.37500    1.000
    C605     C        0.64380    0.24950    0.43760    1.000
    H1714    H        0.65510    0.25550    0.45510    1.000
    H1715    H        0.62340    0.24530    0.44380    1.000
    C606     C        0.67450    0.27800    0.40740    1.000
    H1716    H        0.67600    0.29440    0.39320    1.000
    H1717    H        0.68590    0.28340    0.42510    1.000
    H1718    H        0.43600    0.87640    0.91110    1.000
    H1719    H        0.43960    0.84760    0.96440    1.000
    H1720    H        0.53300    0.77950    0.99540    1.000
    H1721    H        0.57940    0.76510    0.96000    1.000
    C607     C        0.55570    0.83170    0.95520    1.000
    H1722    H        0.56520    0.83890    0.97340    1.000
    H1723    H        0.55680    0.84750    0.94040    1.000
    N102     N        0.64391    0.77385    0.91542    1.000
    C608     C        0.52300    0.82420    0.96160    1.000
    H1724    H        0.51020    0.83610    0.94880    1.000
    H1725    H        0.51830    0.82910    0.98220    1.000
    C609     C        0.60680    0.84470    0.86860    1.000
    H1726    H        0.61660    0.82690    0.86100    1.000
    H1727    H        0.58630    0.83940    0.87350    1.000
    H1728    H        0.66340    0.84620    0.87900    1.000
    C610     C        0.62720    0.76460    0.89010    1.000
    H1729    H        0.60650    0.76140    0.89580    1.000
    H1730    H        0.62780    0.78010    0.87500    1.000
    C611     C        0.64380    0.74950    0.93760    1.000
    H1731    H        0.65510    0.75550    0.95510    1.000
    H1732    H        0.62340    0.74530    0.94380    1.000
    C612     C        0.67450    0.77800    0.90740    1.000
    H1733    H        0.67600    0.79440    0.89320    1.000
    H1734    H        0.68590    0.78340    0.92510    1.000
    H1735    H        0.93600    0.37640    0.91110    1.000
    H1736    H        0.93960    0.34760    0.96440    1.000
    H1737    H        0.03300    0.27950    0.99540    1.000
    H1738    H        0.07940    0.26510    0.96000    1.000
    C613     C        0.05570    0.33170    0.95520    1.000
    H1739    H        0.06520    0.33890    0.97340    1.000
    H1740    H        0.05680    0.34750    0.94040    1.000
    N103     N        0.14391    0.27385    0.91542    1.000
    C614     C        0.02300    0.32420    0.96160    1.000
    H1741    H        0.01020    0.33610    0.94880    1.000
    H1742    H        0.01830    0.32910    0.98220    1.000
    C615     C        0.10680    0.34470    0.86860    1.000
    H1743    H        0.11660    0.32690    0.86100    1.000
    H1744    H        0.08630    0.33940    0.87350    1.000
    H1745    H        0.16340    0.34620    0.87900    1.000
    C616     C        0.12720    0.26460    0.89010    1.000
    H1746    H        0.10650    0.26140    0.89580    1.000
    H1747    H        0.12780    0.28010    0.87500    1.000
    C617     C        0.14380    0.24950    0.93760    1.000
    H1748    H        0.15510    0.25550    0.95510    1.000
    H1749    H        0.12340    0.24530    0.94380    1.000
    C618     C        0.17450    0.27800    0.90740    1.000
    H1750    H        0.17600    0.29440    0.89320    1.000
    H1751    H        0.18590    0.28340    0.92510    1.000
    H1752    H        0.93600    0.87640    0.41110    1.000
    H1753    H        0.93960    0.84760    0.46440    1.000
    H1754    H        0.03300    0.77950    0.49540    1.000
    H1755    H        0.07940    0.76510    0.46000    1.000
    C619     C        0.05570    0.83170    0.45520    1.000
    H1756    H        0.06520    0.83890    0.47340    1.000
    H1757    H        0.05680    0.84750    0.44040    1.000
    N104     N        0.14391    0.77385    0.41542    1.000
    C620     C        0.02300    0.82420    0.46160    1.000
    H1758    H        0.01020    0.83610    0.44880    1.000
    H1759    H        0.01830    0.82910    0.48220    1.000
    C621     C        0.10680    0.84470    0.36860    1.000
    H1760    H        0.11660    0.82690    0.36100    1.000
    H1761    H        0.08630    0.83940    0.37350    1.000
    H1762    H        0.16340    0.84620    0.37900    1.000
    C622     C        0.12720    0.76460    0.39010    1.000
    H1763    H        0.10650    0.76140    0.39580    1.000
    H1764    H        0.12780    0.78010    0.37500    1.000
    C623     C        0.14380    0.74950    0.43760    1.000
    H1765    H        0.15510    0.75550    0.45510    1.000
    H1766    H        0.12340    0.74530    0.44380    1.000
    C624     C        0.17450    0.77800    0.40740    1.000
    H1767    H        0.17600    0.79440    0.39320    1.000
    H1768    H        0.18590    0.78340    0.42510    1.000
    H1769    H        0.93600    0.87360    0.33890    1.000
    H1770    H        0.93960    0.90240    0.28560    1.000
    H1771    H        0.03300    0.97050    0.25460    1.000
    H1772    H        0.07940    0.98490    0.29000    1.000
    C625     C        0.05570    0.91830    0.29480    1.000
    H1773    H        0.06520    0.91110    0.27660    1.000
    H1774    H        0.05680    0.90250    0.30960    1.000
    N105     N        0.14391    0.97615    0.33458    1.000
    C626     C        0.02300    0.92580    0.28840    1.000
    H1775    H        0.01020    0.91390    0.30120    1.000
    H1776    H        0.01830    0.92090    0.26780    1.000
    C627     C        0.10680    0.90530    0.38140    1.000
    H1777    H        0.11660    0.92310    0.38900    1.000
    H1778    H        0.08630    0.91060    0.37650    1.000
    H1779    H        0.16340    0.90380    0.37100    1.000
    C628     C        0.12720    0.98540    0.35990    1.000
    H1780    H        0.10650    0.98860    0.35420    1.000
    H1781    H        0.12780    0.96990    0.37500    1.000
    C629     C        0.14380    0.00050    0.31240    1.000
    H1782    H        0.15510    0.99450    0.29490    1.000
    H1783    H        0.12340    0.00470    0.30620    1.000
    C630     C        0.17450    0.97200    0.34260    1.000
    H1784    H        0.17600    0.95560    0.35680    1.000
    H1785    H        0.18590    0.96660    0.32490    1.000
    H1786    H        0.93600    0.37360    0.83890    1.000
    H1787    H        0.93960    0.40240    0.78560    1.000
    H1788    H        0.03300    0.47050    0.75460    1.000
    H1789    H        0.07940    0.48490    0.79000    1.000
    C631     C        0.05570    0.41830    0.79480    1.000
    H1790    H        0.06520    0.41110    0.77660    1.000
    H1791    H        0.05680    0.40250    0.80960    1.000
    N106     N        0.14391    0.47615    0.83458    1.000
    C632     C        0.02300    0.42580    0.78840    1.000
    H1792    H        0.01020    0.41390    0.80120    1.000
    H1793    H        0.01830    0.42090    0.76780    1.000
    C633     C        0.10680    0.40530    0.88140    1.000
    H1794    H        0.11660    0.42310    0.88900    1.000
    H1795    H        0.08630    0.41060    0.87650    1.000
    H1796    H        0.16340    0.40380    0.87100    1.000
    C634     C        0.12720    0.48540    0.85990    1.000
    H1797    H        0.10650    0.48860    0.85420    1.000
    H1798    H        0.12780    0.46990    0.87500    1.000
    C635     C        0.14380    0.50050    0.81240    1.000
    H1799    H        0.15510    0.49450    0.79490    1.000
    H1800    H        0.12340    0.50470    0.80620    1.000
    C636     C        0.17450    0.47200    0.84260    1.000
    H1801    H        0.17600    0.45560    0.85680    1.000
    H1802    H        0.18590    0.46660    0.82490    1.000
    H1803    H        0.43600    0.87360    0.83890    1.000
    H1804    H        0.43960    0.90240    0.78560    1.000
    H1805    H        0.53300    0.97050    0.75460    1.000
    H1806    H        0.57940    0.98490    0.79000    1.000
    C637     C        0.55570    0.91830    0.79480    1.000
    H1807    H        0.56520    0.91110    0.77660    1.000
    H1808    H        0.55680    0.90250    0.80960    1.000
    N107     N        0.64391    0.97615    0.83458    1.000
    C638     C        0.52300    0.92580    0.78840    1.000
    H1809    H        0.51020    0.91390    0.80120    1.000
    H1810    H        0.51830    0.92090    0.76780    1.000
    C639     C        0.60680    0.90530    0.88140    1.000
    H1811    H        0.61660    0.92310    0.88900    1.000
    H1812    H        0.58630    0.91060    0.87650    1.000
    H1813    H        0.66340    0.90380    0.87100    1.000
    C640     C        0.62720    0.98540    0.85990    1.000
    H1814    H        0.60650    0.98860    0.85420    1.000
    H1815    H        0.62780    0.96990    0.87500    1.000
    C641     C        0.64380    0.00050    0.81240    1.000
    H1816    H        0.65510    0.99450    0.79490    1.000
    H1817    H        0.62340    0.00470    0.80620    1.000
    C642     C        0.67450    0.97200    0.84260    1.000
    H1818    H        0.67600    0.95560    0.85680    1.000
    H1819    H        0.68590    0.96660    0.82490    1.000
    H1820    H        0.43600    0.37360    0.33890    1.000
    H1821    H        0.43960    0.40240    0.28560    1.000
    H1822    H        0.53300    0.47050    0.25460    1.000
    H1823    H        0.57940    0.48490    0.29000    1.000
    C643     C        0.55570    0.41830    0.29480    1.000
    H1824    H        0.56520    0.41110    0.27660    1.000
    H1825    H        0.55680    0.40250    0.30960    1.000
    N108     N        0.64391    0.47615    0.33458    1.000
    C644     C        0.52300    0.42580    0.28840    1.000
    H1826    H        0.51020    0.41390    0.30120    1.000
    H1827    H        0.51830    0.42090    0.26780    1.000
    C645     C        0.60680    0.40530    0.38140    1.000
    H1828    H        0.61660    0.42310    0.38900    1.000
    H1829    H        0.58630    0.41060    0.37650    1.000
    H1830    H        0.66340    0.40380    0.37100    1.000
    C646     C        0.62720    0.48540    0.35990    1.000
    H1831    H        0.60650    0.48860    0.35420    1.000
    H1832    H        0.62780    0.46990    0.37500    1.000
    C647     C        0.64380    0.50050    0.31240    1.000
    H1833    H        0.65510    0.49450    0.29490    1.000
    H1834    H        0.62340    0.50470    0.30620    1.000
    C648     C        0.67450    0.47200    0.34260    1.000
    H1835    H        0.67600    0.45560    0.35680    1.000
    H1836    H        0.68590    0.46660    0.32490    1.000
    H1837    H        0.31400    0.87640    0.83890    1.000
    H1838    H        0.31040    0.84760    0.78560    1.000
    H1839    H        0.21700    0.77950    0.75460    1.000
    H1840    H        0.17060    0.76510    0.79000    1.000
    C649     C        0.19430    0.83170    0.79480    1.000
    H1841    H        0.18480    0.83890    0.77660    1.000
    H1842    H        0.19320    0.84750    0.80960    1.000
    N109     N        0.10609    0.77385    0.83458    1.000
    C650     C        0.22700    0.82420    0.78840    1.000
    H1843    H        0.23980    0.83610    0.80120    1.000
    H1844    H        0.23170    0.82910    0.76780    1.000
    C651     C        0.14320    0.84470    0.88140    1.000
    H1845    H        0.13340    0.82690    0.88900    1.000
    H1846    H        0.16370    0.83940    0.87650    1.000
    H1847    H        0.08660    0.84620    0.87100    1.000
    C652     C        0.12280    0.76460    0.85990    1.000
    H1848    H        0.14350    0.76140    0.85420    1.000
    H1849    H        0.12220    0.78010    0.87500    1.000
    C653     C        0.10620    0.74950    0.81240    1.000
    H1850    H        0.09490    0.75550    0.79490    1.000
    H1851    H        0.12660    0.74530    0.80620    1.000
    C654     C        0.07550    0.77800    0.84260    1.000
    H1852    H        0.07400    0.79440    0.85680    1.000
    H1853    H        0.06410    0.78340    0.82490    1.000
    H1854    H        0.31400    0.37640    0.33890    1.000
    H1855    H        0.31040    0.34760    0.28560    1.000
    H1856    H        0.21700    0.27950    0.25460    1.000
    H1857    H        0.17060    0.26510    0.29000    1.000
    C655     C        0.19430    0.33170    0.29480    1.000
    H1858    H        0.18480    0.33890    0.27660    1.000
    H1859    H        0.19320    0.34750    0.30960    1.000
    N110     N        0.10609    0.27385    0.33458    1.000
    C656     C        0.22700    0.32420    0.28840    1.000
    H1860    H        0.23980    0.33610    0.30120    1.000
    H1861    H        0.23170    0.32910    0.26780    1.000
    C657     C        0.14320    0.34470    0.38140    1.000
    H1862    H        0.13340    0.32690    0.38900    1.000
    H1863    H        0.16370    0.33940    0.37650    1.000
    H1864    H        0.08660    0.34620    0.37100    1.000
    C658     C        0.12280    0.26460    0.35990    1.000
    H1865    H        0.14350    0.26140    0.35420    1.000
    H1866    H        0.12220    0.28010    0.37500    1.000
    C659     C        0.10620    0.24950    0.31240    1.000
    H1867    H        0.09490    0.25550    0.29490    1.000
    H1868    H        0.12660    0.24530    0.30620    1.000
    C660     C        0.07550    0.27800    0.34260    1.000
    H1869    H        0.07400    0.29440    0.35680    1.000
    H1870    H        0.06410    0.28340    0.32490    1.000
    H1871    H        0.81400    0.87640    0.33890    1.000
    H1872    H        0.81040    0.84760    0.28560    1.000
    H1873    H        0.71700    0.77950    0.25460    1.000
    H1874    H        0.67060    0.76510    0.29000    1.000
    C661     C        0.69430    0.83170    0.29480    1.000
    H1875    H        0.68480    0.83890    0.27660    1.000
    H1876    H        0.69320    0.84750    0.30960    1.000
    N111     N        0.60609    0.77385    0.33458    1.000
    C662     C        0.72700    0.82420    0.28840    1.000
    H1877    H        0.73980    0.83610    0.30120    1.000
    H1878    H        0.73170    0.82910    0.26780    1.000
    C663     C        0.64320    0.84470    0.38140    1.000
    H1879    H        0.63340    0.82690    0.38900    1.000
    H1880    H        0.66370    0.83940    0.37650    1.000
    H1881    H        0.58660    0.84620    0.37100    1.000
    C664     C        0.62280    0.76460    0.35990    1.000
    H1882    H        0.64350    0.76140    0.35420    1.000
    H1883    H        0.62220    0.78010    0.37500    1.000
    C665     C        0.60620    0.74950    0.31240    1.000
    H1884    H        0.59490    0.75550    0.29490    1.000
    H1885    H        0.62660    0.74530    0.30620    1.000
    C666     C        0.57550    0.77800    0.34260    1.000
    H1886    H        0.57400    0.79440    0.35680    1.000
    H1887    H        0.56410    0.78340    0.32490    1.000
    H1888    H        0.81400    0.37640    0.83890    1.000
    H1889    H        0.81040    0.34760    0.78560    1.000
    H1890    H        0.71700    0.27950    0.75460    1.000
    H1891    H        0.67060    0.26510    0.79000    1.000
    C667     C        0.69430    0.33170    0.79480    1.000
    H1892    H        0.68480    0.33890    0.77660    1.000
    H1893    H        0.69320    0.34750    0.80960    1.000
    N112     N        0.60609    0.27385    0.83458    1.000
    C668     C        0.72700    0.32420    0.78840    1.000
    H1894    H        0.73980    0.33610    0.80120    1.000
    H1895    H        0.73170    0.32910    0.76780    1.000
    C669     C        0.64320    0.34470    0.88140    1.000
    H1896    H        0.63340    0.32690    0.88900    1.000
    H1897    H        0.66370    0.33940    0.87650    1.000
    H1898    H        0.58660    0.34620    0.87100    1.000
    C670     C        0.62280    0.26460    0.85990    1.000
    H1899    H        0.64350    0.26140    0.85420    1.000
    H1900    H        0.62220    0.28010    0.87500    1.000
    C671     C        0.60620    0.24950    0.81240    1.000
    H1901    H        0.59490    0.25550    0.79490    1.000
    H1902    H        0.62660    0.24530    0.80620    1.000
    C672     C        0.57550    0.27800    0.84260    1.000
    H1903    H        0.57400    0.29440    0.85680    1.000
    H1904    H        0.56410    0.28340    0.82490    1.000
    H1905    H        0.91110    0.81400    0.37360    1.000
    H1906    H        0.96440    0.81040    0.40240    1.000
    H1907    H        0.99540    0.71700    0.47050    1.000
    H1908    H        0.96000    0.67060    0.48490    1.000
    C673     C        0.95520    0.69430    0.41830    1.000
    H1909    H        0.97340    0.68480    0.41110    1.000
    H1910    H        0.94040    0.69320    0.40250    1.000
    N113     N        0.91542    0.60609    0.47615    1.000
    C674     C        0.96160    0.72700    0.42580    1.000
    H1911    H        0.94880    0.73980    0.41390    1.000
    H1912    H        0.98220    0.73170    0.42090    1.000
    C675     C        0.86860    0.64320    0.40530    1.000
    H1913    H        0.86100    0.63340    0.42310    1.000
    H1914    H        0.87350    0.66370    0.41060    1.000
    H1915    H        0.87900    0.58660    0.40380    1.000
    C676     C        0.89010    0.62280    0.48540    1.000
    H1916    H        0.89580    0.64350    0.48860    1.000
    H1917    H        0.87500    0.62220    0.46990    1.000
    C677     C        0.93760    0.60620    0.50050    1.000
    H1918    H        0.95510    0.59490    0.49450    1.000
    H1919    H        0.94380    0.62660    0.50470    1.000
    C678     C        0.90740    0.57550    0.47200    1.000
    H1920    H        0.89320    0.57400    0.45560    1.000
    H1921    H        0.92510    0.56410    0.46660    1.000
    H1922    H        0.91110    0.31400    0.87360    1.000
    H1923    H        0.96440    0.31040    0.90240    1.000
    H1924    H        0.99540    0.21700    0.97050    1.000
    H1925    H        0.96000    0.17060    0.98490    1.000
    C679     C        0.95520    0.19430    0.91830    1.000
    H1926    H        0.97340    0.18480    0.91110    1.000
    H1927    H        0.94040    0.19320    0.90250    1.000
    N114     N        0.91542    0.10609    0.97615    1.000
    C680     C        0.96160    0.22700    0.92580    1.000
    H1928    H        0.94880    0.23980    0.91390    1.000
    H1929    H        0.98220    0.23170    0.92090    1.000
    C681     C        0.86860    0.14320    0.90530    1.000
    H1930    H        0.86100    0.13340    0.92310    1.000
    H1931    H        0.87350    0.16370    0.91060    1.000
    H1932    H        0.87900    0.08660    0.90380    1.000
    C682     C        0.89010    0.12280    0.98540    1.000
    H1933    H        0.89580    0.14350    0.98860    1.000
    H1934    H        0.87500    0.12220    0.96990    1.000
    C683     C        0.93760    0.10620    0.00050    1.000
    H1935    H        0.95510    0.09490    0.99450    1.000
    H1936    H        0.94380    0.12660    0.00470    1.000
    C684     C        0.90740    0.07550    0.97200    1.000
    H1937    H        0.89320    0.07400    0.95560    1.000
    H1938    H        0.92510    0.06410    0.96660    1.000
    H1939    H        0.41110    0.81400    0.87360    1.000
    H1940    H        0.46440    0.81040    0.90240    1.000
    H1941    H        0.49540    0.71700    0.97050    1.000
    H1942    H        0.46000    0.67060    0.98490    1.000
    C685     C        0.45520    0.69430    0.91830    1.000
    H1943    H        0.47340    0.68480    0.91110    1.000
    H1944    H        0.44040    0.69320    0.90250    1.000
    N115     N        0.41542    0.60609    0.97615    1.000
    C686     C        0.46160    0.72700    0.92580    1.000
    H1945    H        0.44880    0.73980    0.91390    1.000
    H1946    H        0.48220    0.73170    0.92090    1.000
    C687     C        0.36860    0.64320    0.90530    1.000
    H1947    H        0.36100    0.63340    0.92310    1.000
    H1948    H        0.37350    0.66370    0.91060    1.000
    H1949    H        0.37900    0.58660    0.90380    1.000
    C688     C        0.39010    0.62280    0.98540    1.000
    H1950    H        0.39580    0.64350    0.98860    1.000
    H1951    H        0.37500    0.62220    0.96990    1.000
    C689     C        0.43760    0.60620    0.00050    1.000
    H1952    H        0.45510    0.59490    0.99450    1.000
    H1953    H        0.44380    0.62660    0.00470    1.000
    C690     C        0.40740    0.57550    0.97200    1.000
    H1954    H        0.39320    0.57400    0.95560    1.000
    H1955    H        0.42510    0.56410    0.96660    1.000
    H1956    H        0.41110    0.31400    0.37360    1.000
    H1957    H        0.46440    0.31040    0.40240    1.000
    H1958    H        0.49540    0.21700    0.47050    1.000
    H1959    H        0.46000    0.17060    0.48490    1.000
    C691     C        0.45520    0.19430    0.41830    1.000
    H1960    H        0.47340    0.18480    0.41110    1.000
    H1961    H        0.44040    0.19320    0.40250    1.000
    N116     N        0.41542    0.10609    0.47615    1.000
    C692     C        0.46160    0.22700    0.42580    1.000
    H1962    H        0.44880    0.23980    0.41390    1.000
    H1963    H        0.48220    0.23170    0.42090    1.000
    C693     C        0.36860    0.14320    0.40530    1.000
    H1964    H        0.36100    0.13340    0.42310    1.000
    H1965    H        0.37350    0.16370    0.41060    1.000
    H1966    H        0.37900    0.08660    0.40380    1.000
    C694     C        0.39010    0.12280    0.48540    1.000
    H1967    H        0.39580    0.14350    0.48860    1.000
    H1968    H        0.37500    0.12220    0.46990    1.000
    C695     C        0.43760    0.10620    0.50050    1.000
    H1969    H        0.45510    0.09490    0.49450    1.000
    H1970    H        0.44380    0.12660    0.50470    1.000
    C696     C        0.40740    0.07550    0.47200    1.000
    H1971    H        0.39320    0.07400    0.45560    1.000
    H1972    H        0.42510    0.06410    0.46660    1.000
    H1973    H        0.41110    0.43600    0.37640    1.000
    H1974    H        0.46440    0.43960    0.34760    1.000
    H1975    H        0.49540    0.53300    0.27950    1.000
    H1976    H        0.46000    0.57940    0.26510    1.000
    C697     C        0.45520    0.55570    0.33170    1.000
    H1977    H        0.47340    0.56520    0.33890    1.000
    H1978    H        0.44040    0.55680    0.34750    1.000
    N117     N        0.41542    0.64391    0.27385    1.000
    C698     C        0.46160    0.52300    0.32420    1.000
    H1979    H        0.44880    0.51020    0.33610    1.000
    H1980    H        0.48220    0.51830    0.32910    1.000
    C699     C        0.36860    0.60680    0.34470    1.000
    H1981    H        0.36100    0.61660    0.32690    1.000
    H1982    H        0.37350    0.58630    0.33940    1.000
    H1983    H        0.37900    0.66340    0.34620    1.000
    C700     C        0.39010    0.62720    0.26460    1.000
    H1984    H        0.39580    0.60650    0.26140    1.000
    H1985    H        0.37500    0.62780    0.28010    1.000
    C701     C        0.43760    0.64380    0.24950    1.000
    H1986    H        0.45510    0.65510    0.25550    1.000
    H1987    H        0.44380    0.62340    0.24530    1.000
    C702     C        0.40740    0.67450    0.27800    1.000
    H1988    H        0.39320    0.67600    0.29440    1.000
    H1989    H        0.42510    0.68590    0.28340    1.000
    H1990    H        0.41110    0.93600    0.87640    1.000
    H1991    H        0.46440    0.93960    0.84760    1.000
    H1992    H        0.49540    0.03300    0.77950    1.000
    H1993    H        0.46000    0.07940    0.76510    1.000
    C703     C        0.45520    0.05570    0.83170    1.000
    H1994    H        0.47340    0.06520    0.83890    1.000
    H1995    H        0.44040    0.05680    0.84750    1.000
    N118     N        0.41542    0.14391    0.77385    1.000
    C704     C        0.46160    0.02300    0.82420    1.000
    H1996    H        0.44880    0.01020    0.83610    1.000
    H1997    H        0.48220    0.01830    0.82910    1.000
    C705     C        0.36860    0.10680    0.84470    1.000
    H1998    H        0.36100    0.11660    0.82690    1.000
    H1999    H        0.37350    0.08630    0.83940    1.000
    H2000    H        0.37900    0.16340    0.84620    1.000
    C706     C        0.39010    0.12720    0.76460    1.000
    H2001    H        0.39580    0.10650    0.76140    1.000
    H2002    H        0.37500    0.12780    0.78010    1.000
    C707     C        0.43760    0.14380    0.74950    1.000
    H2003    H        0.45510    0.15510    0.75550    1.000
    H2004    H        0.44380    0.12340    0.74530    1.000
    C708     C        0.40740    0.17450    0.77800    1.000
    H2005    H        0.39320    0.17600    0.79440    1.000
    H2006    H        0.42510    0.18590    0.78340    1.000
    H2007    H        0.91110    0.43600    0.87640    1.000
    H2008    H        0.96440    0.43960    0.84760    1.000
    H2009    H        0.99540    0.53300    0.77950    1.000
    H2010    H        0.96000    0.57940    0.76510    1.000
    C709     C        0.95520    0.55570    0.83170    1.000
    H2011    H        0.97340    0.56520    0.83890    1.000
    H2012    H        0.94040    0.55680    0.84750    1.000
    N119     N        0.91542    0.64391    0.77385    1.000
    C710     C        0.96160    0.52300    0.82420    1.000
    H2013    H        0.94880    0.51020    0.83610    1.000
    H2014    H        0.98220    0.51830    0.82910    1.000
    C711     C        0.86860    0.60680    0.84470    1.000
    H2015    H        0.86100    0.61660    0.82690    1.000
    H2016    H        0.87350    0.58630    0.83940    1.000
    H2017    H        0.87900    0.66340    0.84620    1.000
    C712     C        0.89010    0.62720    0.76460    1.000
    H2018    H        0.89580    0.60650    0.76140    1.000
    H2019    H        0.87500    0.62780    0.78010    1.000
    C713     C        0.93760    0.64380    0.74950    1.000
    H2020    H        0.95510    0.65510    0.75550    1.000
    H2021    H        0.94380    0.62340    0.74530    1.000
    C714     C        0.90740    0.67450    0.77800    1.000
    H2022    H        0.89320    0.67600    0.79440    1.000
    H2023    H        0.92510    0.68590    0.78340    1.000
    H2024    H        0.91110    0.93600    0.37640    1.000
    H2025    H        0.96440    0.93960    0.34760    1.000
    H2026    H        0.99540    0.03300    0.27950    1.000
    H2027    H        0.96000    0.07940    0.26510    1.000
    C715     C        0.95520    0.05570    0.33170    1.000
    H2028    H        0.97340    0.06520    0.33890    1.000
    H2029    H        0.94040    0.05680    0.34750    1.000
    N120     N        0.91542    0.14391    0.27385    1.000
    C716     C        0.96160    0.02300    0.32420    1.000
    H2030    H        0.94880    0.01020    0.33610    1.000
    H2031    H        0.98220    0.01830    0.32910    1.000
    C717     C        0.86860    0.10680    0.34470    1.000
    H2032    H        0.86100    0.11660    0.32690    1.000
    H2033    H        0.87350    0.08630    0.33940    1.000
    H2034    H        0.87900    0.16340    0.34620    1.000
    C718     C        0.89010    0.12720    0.26460    1.000
    H2035    H        0.89580    0.10650    0.26140    1.000
    H2036    H        0.87500    0.12780    0.28010    1.000
    C719     C        0.93760    0.14380    0.24950    1.000
    H2037    H        0.95510    0.15510    0.25550    1.000
    H2038    H        0.94380    0.12340    0.24530    1.000
    C720     C        0.90740    0.17450    0.27800    1.000
    H2039    H        0.89320    0.17600    0.29440    1.000
    H2040    H        0.92510    0.18590    0.28340    1.000
    H2041    H        0.33890    0.93600    0.87360    1.000
    H2042    H        0.28560    0.93960    0.90240    1.000
    H2043    H        0.25460    0.03300    0.97050    1.000
    H2044    H        0.29000    0.07940    0.98490    1.000
    C721     C        0.29480    0.05570    0.91830    1.000
    H2045    H        0.27660    0.06520    0.91110    1.000
    H2046    H        0.30960    0.05680    0.90250    1.000
    N121     N        0.33458    0.14391    0.97615    1.000
    C722     C        0.28840    0.02300    0.92580    1.000
    H2047    H        0.30120    0.01020    0.91390    1.000
    H2048    H        0.26780    0.01830    0.92090    1.000
    C723     C        0.38140    0.10680    0.90530    1.000
    H2049    H        0.38900    0.11660    0.92310    1.000
    H2050    H        0.37650    0.08630    0.91060    1.000
    H2051    H        0.37100    0.16340    0.90380    1.000
    C724     C        0.35990    0.12720    0.98540    1.000
    H2052    H        0.35420    0.10650    0.98860    1.000
    H2053    H        0.37500    0.12780    0.96990    1.000
    C725     C        0.31240    0.14380    0.00050    1.000
    H2054    H        0.29490    0.15510    0.99450    1.000
    H2055    H        0.30620    0.12340    0.00470    1.000
    C726     C        0.34260    0.17450    0.97200    1.000
    H2056    H        0.35680    0.17600    0.95560    1.000
    H2057    H        0.32490    0.18590    0.96660    1.000
    H2058    H        0.33890    0.43600    0.37360    1.000
    H2059    H        0.28560    0.43960    0.40240    1.000
    H2060    H        0.25460    0.53300    0.47050    1.000
    H2061    H        0.29000    0.57940    0.48490    1.000
    C727     C        0.29480    0.55570    0.41830    1.000
    H2062    H        0.27660    0.56520    0.41110    1.000
    H2063    H        0.30960    0.55680    0.40250    1.000
    N122     N        0.33458    0.64391    0.47615    1.000
    C728     C        0.28840    0.52300    0.42580    1.000
    H2064    H        0.30120    0.51020    0.41390    1.000
    H2065    H        0.26780    0.51830    0.42090    1.000
    C729     C        0.38140    0.60680    0.40530    1.000
    H2066    H        0.38900    0.61660    0.42310    1.000
    H2067    H        0.37650    0.58630    0.41060    1.000
    H2068    H        0.37100    0.66340    0.40380    1.000
    C730     C        0.35990    0.62720    0.48540    1.000
    H2069    H        0.35420    0.60650    0.48860    1.000
    H2070    H        0.37500    0.62780    0.46990    1.000
    C731     C        0.31240    0.64380    0.50050    1.000
    H2071    H        0.29490    0.65510    0.49450    1.000
    H2072    H        0.30620    0.62340    0.50470    1.000
    C732     C        0.34260    0.67450    0.47200    1.000
    H2073    H        0.35680    0.67600    0.45560    1.000
    H2074    H        0.32490    0.68590    0.46660    1.000
    H2075    H        0.83890    0.93600    0.37360    1.000
    H2076    H        0.78560    0.93960    0.40240    1.000
    H2077    H        0.75460    0.03300    0.47050    1.000
    H2078    H        0.79000    0.07940    0.48490    1.000
    C733     C        0.79480    0.05570    0.41830    1.000
    H2079    H        0.77660    0.06520    0.41110    1.000
    H2080    H        0.80960    0.05680    0.40250    1.000
    N123     N        0.83458    0.14391    0.47615    1.000
    C734     C        0.78840    0.02300    0.42580    1.000
    H2081    H        0.80120    0.01020    0.41390    1.000
    H2082    H        0.76780    0.01830    0.42090    1.000
    C735     C        0.88140    0.10680    0.40530    1.000
    H2083    H        0.88900    0.11660    0.42310    1.000
    H2084    H        0.87650    0.08630    0.41060    1.000
    H2085    H        0.87100    0.16340    0.40380    1.000
    C736     C        0.85990    0.12720    0.48540    1.000
    H2086    H        0.85420    0.10650    0.48860    1.000
    H2087    H        0.87500    0.12780    0.46990    1.000
    C737     C        0.81240    0.14380    0.50050    1.000
    H2088    H        0.79490    0.15510    0.49450    1.000
    H2089    H        0.80620    0.12340    0.50470    1.000
    C738     C        0.84260    0.17450    0.47200    1.000
    H2090    H        0.85680    0.17600    0.45560    1.000
    H2091    H        0.82490    0.18590    0.46660    1.000
    H2092    H        0.83890    0.43600    0.87360    1.000
    H2093    H        0.78560    0.43960    0.90240    1.000
    H2094    H        0.75460    0.53300    0.97050    1.000
    H2095    H        0.79000    0.57940    0.98490    1.000
    C739     C        0.79480    0.55570    0.91830    1.000
    H2096    H        0.77660    0.56520    0.91110    1.000
    H2097    H        0.80960    0.55680    0.90250    1.000
    N124     N        0.83458    0.64391    0.97615    1.000
    C740     C        0.78840    0.52300    0.92580    1.000
    H2098    H        0.80120    0.51020    0.91390    1.000
    H2099    H        0.76780    0.51830    0.92090    1.000
    C741     C        0.88140    0.60680    0.90530    1.000
    H2100    H        0.88900    0.61660    0.92310    1.000
    H2101    H        0.87650    0.58630    0.91060    1.000
    H2102    H        0.87100    0.66340    0.90380    1.000
    C742     C        0.85990    0.62720    0.98540    1.000
    H2103    H        0.85420    0.60650    0.98860    1.000
    H2104    H        0.87500    0.62780    0.96990    1.000
    C743     C        0.81240    0.64380    0.00050    1.000
    H2105    H        0.79490    0.65510    0.99450    1.000
    H2106    H        0.80620    0.62340    0.00470    1.000
    C744     C        0.84260    0.67450    0.97200    1.000
    H2107    H        0.85680    0.67600    0.95560    1.000
    H2108    H        0.82490    0.68590    0.96660    1.000
    H2109    H        0.83890    0.31400    0.87640    1.000
    H2110    H        0.78560    0.31040    0.84760    1.000
    H2111    H        0.75460    0.21700    0.77950    1.000
    H2112    H        0.79000    0.17060    0.76510    1.000
    C745     C        0.79480    0.19430    0.83170    1.000
    H2113    H        0.77660    0.18480    0.83890    1.000
    H2114    H        0.80960    0.19320    0.84750    1.000
    N125     N        0.83458    0.10609    0.77385    1.000
    C746     C        0.78840    0.22700    0.82420    1.000
    H2115    H        0.80120    0.23980    0.83610    1.000
    H2116    H        0.76780    0.23170    0.82910    1.000
    C747     C        0.88140    0.14320    0.84470    1.000
    H2117    H        0.88900    0.13340    0.82690    1.000
    H2118    H        0.87650    0.16370    0.83940    1.000
    H2119    H        0.87100    0.08660    0.84620    1.000
    C748     C        0.85990    0.12280    0.76460    1.000
    H2120    H        0.85420    0.14350    0.76140    1.000
    H2121    H        0.87500    0.12220    0.78010    1.000
    C749     C        0.81240    0.10620    0.74950    1.000
    H2122    H        0.79490    0.09490    0.75550    1.000
    H2123    H        0.80620    0.12660    0.74530    1.000
    C750     C        0.84260    0.07550    0.77800    1.000
    H2124    H        0.85680    0.07400    0.79440    1.000
    H2125    H        0.82490    0.06410    0.78340    1.000
    H2126    H        0.83890    0.81400    0.37640    1.000
    H2127    H        0.78560    0.81040    0.34760    1.000
    H2128    H        0.75460    0.71700    0.27950    1.000
    H2129    H        0.79000    0.67060    0.26510    1.000
    C751     C        0.79480    0.69430    0.33170    1.000
    H2130    H        0.77660    0.68480    0.33890    1.000
    H2131    H        0.80960    0.69320    0.34750    1.000
    N126     N        0.83458    0.60609    0.27385    1.000
    C752     C        0.78840    0.72700    0.32420    1.000
    H2132    H        0.80120    0.73980    0.33610    1.000
    H2133    H        0.76780    0.73170    0.32910    1.000
    C753     C        0.88140    0.64320    0.34470    1.000
    H2134    H        0.88900    0.63340    0.32690    1.000
    H2135    H        0.87650    0.66370    0.33940    1.000
    H2136    H        0.87100    0.58660    0.34620    1.000
    C754     C        0.85990    0.62280    0.26460    1.000
    H2137    H        0.85420    0.64350    0.26140    1.000
    H2138    H        0.87500    0.62220    0.28010    1.000
    C755     C        0.81240    0.60620    0.24950    1.000
    H2139    H        0.79490    0.59490    0.25550    1.000
    H2140    H        0.80620    0.62660    0.24530    1.000
    C756     C        0.84260    0.57550    0.27800    1.000
    H2141    H        0.85680    0.57400    0.29440    1.000
    H2142    H        0.82490    0.56410    0.28340    1.000
    H2143    H        0.33890    0.31400    0.37640    1.000
    H2144    H        0.28560    0.31040    0.34760    1.000
    H2145    H        0.25460    0.21700    0.27950    1.000
    H2146    H        0.29000    0.17060    0.26510    1.000
    C757     C        0.29480    0.19430    0.33170    1.000
    H2147    H        0.27660    0.18480    0.33890    1.000
    H2148    H        0.30960    0.19320    0.34750    1.000
    N127     N        0.33458    0.10609    0.27385    1.000
    C758     C        0.28840    0.22700    0.32420    1.000
    H2149    H        0.30120    0.23980    0.33610    1.000
    H2150    H        0.26780    0.23170    0.32910    1.000
    C759     C        0.38140    0.14320    0.34470    1.000
    H2151    H        0.38900    0.13340    0.32690    1.000
    H2152    H        0.37650    0.16370    0.33940    1.000
    H2153    H        0.37100    0.08660    0.34620    1.000
    C760     C        0.35990    0.12280    0.26460    1.000
    H2154    H        0.35420    0.14350    0.26140    1.000
    H2155    H        0.37500    0.12220    0.28010    1.000
    C761     C        0.31240    0.10620    0.24950    1.000
    H2156    H        0.29490    0.09490    0.25550    1.000
    H2157    H        0.30620    0.12660    0.24530    1.000
    C762     C        0.34260    0.07550    0.27800    1.000
    H2158    H        0.35680    0.07400    0.29440    1.000
    H2159    H        0.32490    0.06410    0.28340    1.000
    H2160    H        0.33890    0.81400    0.87640    1.000
    H2161    H        0.28560    0.81040    0.84760    1.000
    H2162    H        0.25460    0.71700    0.77950    1.000
    H2163    H        0.29000    0.67060    0.76510    1.000
    C763     C        0.29480    0.69430    0.83170    1.000
    H2164    H        0.27660    0.68480    0.83890    1.000
    H2165    H        0.30960    0.69320    0.84750    1.000
    N128     N        0.33458    0.60609    0.77385    1.000
    C764     C        0.28840    0.72700    0.82420    1.000
    H2166    H        0.30120    0.73980    0.83610    1.000
    H2167    H        0.26780    0.73170    0.82910    1.000
    C765     C        0.38140    0.64320    0.84470    1.000
    H2168    H        0.38900    0.63340    0.82690    1.000
    H2169    H        0.37650    0.66370    0.83940    1.000
    H2170    H        0.37100    0.58660    0.84620    1.000
    C766     C        0.35990    0.62280    0.76460    1.000
    H2171    H        0.35420    0.64350    0.76140    1.000
    H2172    H        0.37500    0.62220    0.78010    1.000
    C767     C        0.31240    0.60620    0.74950    1.000
    H2173    H        0.29490    0.59490    0.75550    1.000
    H2174    H        0.30620    0.62660    0.74530    1.000
    C768     C        0.34260    0.57550    0.77800    1.000
    H2175    H        0.35680    0.57400    0.79440    1.000
    H2176    H        0.32490    0.56410    0.78340    1.000
    H2177    H        0.37360    0.91110    0.81400    1.000
    H2178    H        0.40240    0.96440    0.81040    1.000
    H2179    H        0.47050    0.99540    0.71700    1.000
    H2180    H        0.48490    0.96000    0.67060    1.000
    C769     C        0.41830    0.95520    0.69430    1.000
    H2181    H        0.41110    0.97340    0.68480    1.000
    H2182    H        0.40250    0.94040    0.69320    1.000
    N129     N        0.47615    0.91542    0.60609    1.000
    C770     C        0.42580    0.96160    0.72700    1.000
    H2183    H        0.41390    0.94880    0.73980    1.000
    H2184    H        0.42090    0.98220    0.73170    1.000
    C771     C        0.40530    0.86860    0.64320    1.000
    H2185    H        0.42310    0.86100    0.63340    1.000
    H2186    H        0.41060    0.87350    0.66370    1.000
    H2187    H        0.40380    0.87900    0.58660    1.000
    C772     C        0.48540    0.89010    0.62280    1.000
    H2188    H        0.48860    0.89580    0.64350    1.000
    H2189    H        0.46990    0.87500    0.62220    1.000
    C773     C        0.50050    0.93760    0.60620    1.000
    H2190    H        0.49450    0.95510    0.59490    1.000
    H2191    H        0.50470    0.94380    0.62660    1.000
    C774     C        0.47200    0.90740    0.57550    1.000
    H2192    H        0.45560    0.89320    0.57400    1.000
    H2193    H        0.46660    0.92510    0.56410    1.000
    H2194    H        0.37360    0.41110    0.31400    1.000
    H2195    H        0.40240    0.46440    0.31040    1.000
    H2196    H        0.47050    0.49540    0.21700    1.000
    H2197    H        0.48490    0.46000    0.17060    1.000
    C775     C        0.41830    0.45520    0.19430    1.000
    H2198    H        0.41110    0.47340    0.18480    1.000
    H2199    H        0.40250    0.44040    0.19320    1.000
    N130     N        0.47615    0.41542    0.10609    1.000
    C776     C        0.42580    0.46160    0.22700    1.000
    H2200    H        0.41390    0.44880    0.23980    1.000
    H2201    H        0.42090    0.48220    0.23170    1.000
    C777     C        0.40530    0.36860    0.14320    1.000
    H2202    H        0.42310    0.36100    0.13340    1.000
    H2203    H        0.41060    0.37350    0.16370    1.000
    H2204    H        0.40380    0.37900    0.08660    1.000
    C778     C        0.48540    0.39010    0.12280    1.000
    H2205    H        0.48860    0.39580    0.14350    1.000
    H2206    H        0.46990    0.37500    0.12220    1.000
    C779     C        0.50050    0.43760    0.10620    1.000
    H2207    H        0.49450    0.45510    0.09490    1.000
    H2208    H        0.50470    0.44380    0.12660    1.000
    C780     C        0.47200    0.40740    0.07550    1.000
    H2209    H        0.45560    0.39320    0.07400    1.000
    H2210    H        0.46660    0.42510    0.06410    1.000
    H2211    H        0.87360    0.91110    0.31400    1.000
    H2212    H        0.90240    0.96440    0.31040    1.000
    H2213    H        0.97050    0.99540    0.21700    1.000
    H2214    H        0.98490    0.96000    0.17060    1.000
    C781     C        0.91830    0.95520    0.19430    1.000
    H2215    H        0.91110    0.97340    0.18480    1.000
    H2216    H        0.90250    0.94040    0.19320    1.000
    N131     N        0.97615    0.91542    0.10609    1.000
    C782     C        0.92580    0.96160    0.22700    1.000
    H2217    H        0.91390    0.94880    0.23980    1.000
    H2218    H        0.92090    0.98220    0.23170    1.000
    C783     C        0.90530    0.86860    0.14320    1.000
    H2219    H        0.92310    0.86100    0.13340    1.000
    H2220    H        0.91060    0.87350    0.16370    1.000
    H2221    H        0.90380    0.87900    0.08660    1.000
    C784     C        0.98540    0.89010    0.12280    1.000
    H2222    H        0.98860    0.89580    0.14350    1.000
    H2223    H        0.96990    0.87500    0.12220    1.000
    C785     C        0.00050    0.93760    0.10620    1.000
    H2224    H        0.99450    0.95510    0.09490    1.000
    H2225    H        0.00470    0.94380    0.12660    1.000
    C786     C        0.97200    0.90740    0.07550    1.000
    H2226    H        0.95560    0.89320    0.07400    1.000
    H2227    H        0.96660    0.92510    0.06410    1.000
    H2228    H        0.87360    0.41110    0.81400    1.000
    H2229    H        0.90240    0.46440    0.81040    1.000
    H2230    H        0.97050    0.49540    0.71700    1.000
    H2231    H        0.98490    0.46000    0.67060    1.000
    C787     C        0.91830    0.45520    0.69430    1.000
    H2232    H        0.91110    0.47340    0.68480    1.000
    H2233    H        0.90250    0.44040    0.69320    1.000
    N132     N        0.97615    0.41542    0.60609    1.000
    C788     C        0.92580    0.46160    0.72700    1.000
    H2234    H        0.91390    0.44880    0.73980    1.000
    H2235    H        0.92090    0.48220    0.73170    1.000
    C789     C        0.90530    0.36860    0.64320    1.000
    H2236    H        0.92310    0.36100    0.63340    1.000
    H2237    H        0.91060    0.37350    0.66370    1.000
    H2238    H        0.90380    0.37900    0.58660    1.000
    C790     C        0.98540    0.39010    0.62280    1.000
    H2239    H        0.98860    0.39580    0.64350    1.000
    H2240    H        0.96990    0.37500    0.62220    1.000
    C791     C        0.00050    0.43760    0.60620    1.000
    H2241    H        0.99450    0.45510    0.59490    1.000
    H2242    H        0.00470    0.44380    0.62660    1.000
    C792     C        0.97200    0.40740    0.57550    1.000
    H2243    H        0.95560    0.39320    0.57400    1.000
    H2244    H        0.96660    0.42510    0.56410    1.000
    H2245    H        0.37640    0.41110    0.43600    1.000
    H2246    H        0.34760    0.46440    0.43960    1.000
    H2247    H        0.27950    0.49540    0.53300    1.000
    H2248    H        0.26510    0.46000    0.57940    1.000
    C793     C        0.33170    0.45520    0.55570    1.000
    H2249    H        0.33890    0.47340    0.56520    1.000
    H2250    H        0.34750    0.44040    0.55680    1.000
    N133     N        0.27385    0.41542    0.64391    1.000
    C794     C        0.32420    0.46160    0.52300    1.000
    H2251    H        0.33610    0.44880    0.51020    1.000
    H2252    H        0.32910    0.48220    0.51830    1.000
    C795     C        0.34470    0.36860    0.60680    1.000
    H2253    H        0.32690    0.36100    0.61660    1.000
    H2254    H        0.33940    0.37350    0.58630    1.000
    H2255    H        0.34620    0.37900    0.66340    1.000
    C796     C        0.26460    0.39010    0.62720    1.000
    H2256    H        0.26140    0.39580    0.60650    1.000
    H2257    H        0.28010    0.37500    0.62780    1.000
    C797     C        0.24950    0.43760    0.64380    1.000
    H2258    H        0.25550    0.45510    0.65510    1.000
    H2259    H        0.24530    0.44380    0.62340    1.000
    C798     C        0.27800    0.40740    0.67450    1.000
    H2260    H        0.29440    0.39320    0.67600    1.000
    H2261    H        0.28340    0.42510    0.68590    1.000
    H2262    H        0.37640    0.91110    0.93600    1.000
    H2263    H        0.34760    0.96440    0.93960    1.000
    H2264    H        0.27950    0.99540    0.03300    1.000
    H2265    H        0.26510    0.96000    0.07940    1.000
    C799     C        0.33170    0.95520    0.05570    1.000
    H2266    H        0.33890    0.97340    0.06520    1.000
    H2267    H        0.34750    0.94040    0.05680    1.000
    N134     N        0.27385    0.91542    0.14391    1.000
    C800     C        0.32420    0.96160    0.02300    1.000
    H2268    H        0.33610    0.94880    0.01020    1.000
    H2269    H        0.32910    0.98220    0.01830    1.000
    C801     C        0.34470    0.86860    0.10680    1.000
    H2270    H        0.32690    0.86100    0.11660    1.000
    H2271    H        0.33940    0.87350    0.08630    1.000
    H2272    H        0.34620    0.87900    0.16340    1.000
    C802     C        0.26460    0.89010    0.12720    1.000
    H2273    H        0.26140    0.89580    0.10650    1.000
    H2274    H        0.28010    0.87500    0.12780    1.000
    C803     C        0.24950    0.93760    0.14380    1.000
    H2275    H        0.25550    0.95510    0.15510    1.000
    H2276    H        0.24530    0.94380    0.12340    1.000
    C804     C        0.27800    0.90740    0.17450    1.000
    H2277    H        0.29440    0.89320    0.17600    1.000
    H2278    H        0.28340    0.92510    0.18590    1.000
    H2279    H        0.87640    0.41110    0.93600    1.000
    H2280    H        0.84760    0.46440    0.93960    1.000
    H2281    H        0.77950    0.49540    0.03300    1.000
    H2282    H        0.76510    0.46000    0.07940    1.000
    C805     C        0.83170    0.45520    0.05570    1.000
    H2283    H        0.83890    0.47340    0.06520    1.000
    H2284    H        0.84750    0.44040    0.05680    1.000
    N135     N        0.77385    0.41542    0.14391    1.000
    C806     C        0.82420    0.46160    0.02300    1.000
    H2285    H        0.83610    0.44880    0.01020    1.000
    H2286    H        0.82910    0.48220    0.01830    1.000
    C807     C        0.84470    0.36860    0.10680    1.000
    H2287    H        0.82690    0.36100    0.11660    1.000
    H2288    H        0.83940    0.37350    0.08630    1.000
    H2289    H        0.84620    0.37900    0.16340    1.000
    C808     C        0.76460    0.39010    0.12720    1.000
    H2290    H        0.76140    0.39580    0.10650    1.000
    H2291    H        0.78010    0.37500    0.12780    1.000
    C809     C        0.74950    0.43760    0.14380    1.000
    H2292    H        0.75550    0.45510    0.15510    1.000
    H2293    H        0.74530    0.44380    0.12340    1.000
    C810     C        0.77800    0.40740    0.17450    1.000
    H2294    H        0.79440    0.39320    0.17600    1.000
    H2295    H        0.78340    0.42510    0.18590    1.000
    H2296    H        0.87640    0.91110    0.43600    1.000
    H2297    H        0.84760    0.96440    0.43960    1.000
    H2298    H        0.77950    0.99540    0.53300    1.000
    H2299    H        0.76510    0.96000    0.57940    1.000
    C811     C        0.83170    0.95520    0.55570    1.000
    H2300    H        0.83890    0.97340    0.56520    1.000
    H2301    H        0.84750    0.94040    0.55680    1.000
    N136     N        0.77385    0.91542    0.64391    1.000
    C812     C        0.82420    0.96160    0.52300    1.000
    H2302    H        0.83610    0.94880    0.51020    1.000
    H2303    H        0.82910    0.98220    0.51830    1.000
    C813     C        0.84470    0.86860    0.60680    1.000
    H2304    H        0.82690    0.86100    0.61660    1.000
    H2305    H        0.83940    0.87350    0.58630    1.000
    H2306    H        0.84620    0.87900    0.66340    1.000
    C814     C        0.76460    0.89010    0.62720    1.000
    H2307    H        0.76140    0.89580    0.60650    1.000
    H2308    H        0.78010    0.87500    0.62780    1.000
    C815     C        0.74950    0.93760    0.64380    1.000
    H2309    H        0.75550    0.95510    0.65510    1.000
    H2310    H        0.74530    0.94380    0.62340    1.000
    C816     C        0.77800    0.90740    0.67450    1.000
    H2311    H        0.79440    0.89320    0.67600    1.000
    H2312    H        0.78340    0.92510    0.68590    1.000
    H2313    H        0.87360    0.33890    0.93600    1.000
    H2314    H        0.90240    0.28560    0.93960    1.000
    H2315    H        0.97050    0.25460    0.03300    1.000
    H2316    H        0.98490    0.29000    0.07940    1.000
    C817     C        0.91830    0.29480    0.05570    1.000
    H2317    H        0.91110    0.27660    0.06520    1.000
    H2318    H        0.90250    0.30960    0.05680    1.000
    N137     N        0.97615    0.33458    0.14391    1.000
    C818     C        0.92580    0.28840    0.02300    1.000
    H2319    H        0.91390    0.30120    0.01020    1.000
    H2320    H        0.92090    0.26780    0.01830    1.000
    C819     C        0.90530    0.38140    0.10680    1.000
    H2321    H        0.92310    0.38900    0.11660    1.000
    H2322    H        0.91060    0.37650    0.08630    1.000
    H2323    H        0.90380    0.37100    0.16340    1.000
    C820     C        0.98540    0.35990    0.12720    1.000
    H2324    H        0.98860    0.35420    0.10650    1.000
    H2325    H        0.96990    0.37500    0.12780    1.000
    C821     C        0.00050    0.31240    0.14380    1.000
    H2326    H        0.99450    0.29490    0.15510    1.000
    H2327    H        0.00470    0.30620    0.12340    1.000
    C822     C        0.97200    0.34260    0.17450    1.000
    H2328    H        0.95560    0.35680    0.17600    1.000
    H2329    H        0.96660    0.32490    0.18590    1.000
    H2330    H        0.87360    0.83890    0.43600    1.000
    H2331    H        0.90240    0.78560    0.43960    1.000
    H2332    H        0.97050    0.75460    0.53300    1.000
    H2333    H        0.98490    0.79000    0.57940    1.000
    C823     C        0.91830    0.79480    0.55570    1.000
    H2334    H        0.91110    0.77660    0.56520    1.000
    H2335    H        0.90250    0.80960    0.55680    1.000
    N138     N        0.97615    0.83458    0.64391    1.000
    C824     C        0.92580    0.78840    0.52300    1.000
    H2336    H        0.91390    0.80120    0.51020    1.000
    H2337    H        0.92090    0.76780    0.51830    1.000
    C825     C        0.90530    0.88140    0.60680    1.000
    H2338    H        0.92310    0.88900    0.61660    1.000
    H2339    H        0.91060    0.87650    0.58630    1.000
    H2340    H        0.90380    0.87100    0.66340    1.000
    C826     C        0.98540    0.85990    0.62720    1.000
    H2341    H        0.98860    0.85420    0.60650    1.000
    H2342    H        0.96990    0.87500    0.62780    1.000
    C827     C        0.00050    0.81240    0.64380    1.000
    H2343    H        0.99450    0.79490    0.65510    1.000
    H2344    H        0.00470    0.80620    0.62340    1.000
    C828     C        0.97200    0.84260    0.67450    1.000
    H2345    H        0.95560    0.85680    0.67600    1.000
    H2346    H        0.96660    0.82490    0.68590    1.000
    H2347    H        0.37360    0.33890    0.43600    1.000
    H2348    H        0.40240    0.28560    0.43960    1.000
    H2349    H        0.47050    0.25460    0.53300    1.000
    H2350    H        0.48490    0.29000    0.57940    1.000
    C829     C        0.41830    0.29480    0.55570    1.000
    H2351    H        0.41110    0.27660    0.56520    1.000
    H2352    H        0.40250    0.30960    0.55680    1.000
    N139     N        0.47615    0.33458    0.64391    1.000
    C830     C        0.42580    0.28840    0.52300    1.000
    H2353    H        0.41390    0.30120    0.51020    1.000
    H2354    H        0.42090    0.26780    0.51830    1.000
    C831     C        0.40530    0.38140    0.60680    1.000
    H2355    H        0.42310    0.38900    0.61660    1.000
    H2356    H        0.41060    0.37650    0.58630    1.000
    H2357    H        0.40380    0.37100    0.66340    1.000
    C832     C        0.48540    0.35990    0.62720    1.000
    H2358    H        0.48860    0.35420    0.60650    1.000
    H2359    H        0.46990    0.37500    0.62780    1.000
    C833     C        0.50050    0.31240    0.64380    1.000
    H2360    H        0.49450    0.29490    0.65510    1.000
    H2361    H        0.50470    0.30620    0.62340    1.000
    C834     C        0.47200    0.34260    0.67450    1.000
    H2362    H        0.45560    0.35680    0.67600    1.000
    H2363    H        0.46660    0.32490    0.68590    1.000
    H2364    H        0.37360    0.83890    0.93600    1.000
    H2365    H        0.40240    0.78560    0.93960    1.000
    H2366    H        0.47050    0.75460    0.03300    1.000
    H2367    H        0.48490    0.79000    0.07940    1.000
    C835     C        0.41830    0.79480    0.05570    1.000
    H2368    H        0.41110    0.77660    0.06520    1.000
    H2369    H        0.40250    0.80960    0.05680    1.000
    N140     N        0.47615    0.83458    0.14391    1.000
    C836     C        0.42580    0.78840    0.02300    1.000
    H2370    H        0.41390    0.80120    0.01020    1.000
    H2371    H        0.42090    0.76780    0.01830    1.000
    C837     C        0.40530    0.88140    0.10680    1.000
    H2372    H        0.42310    0.88900    0.11660    1.000
    H2373    H        0.41060    0.87650    0.08630    1.000
    H2374    H        0.40380    0.87100    0.16340    1.000
    C838     C        0.48540    0.85990    0.12720    1.000
    H2375    H        0.48860    0.85420    0.10650    1.000
    H2376    H        0.46990    0.87500    0.12780    1.000
    C839     C        0.50050    0.81240    0.14380    1.000
    H2377    H        0.49450    0.79490    0.15510    1.000
    H2378    H        0.50470    0.80620    0.12340    1.000
    C840     C        0.47200    0.84260    0.17450    1.000
    H2379    H        0.45560    0.85680    0.17600    1.000
    H2380    H        0.46660    0.82490    0.18590    1.000
    H2381    H        0.87640    0.83890    0.31400    1.000
    H2382    H        0.84760    0.78560    0.31040    1.000
    H2383    H        0.77950    0.75460    0.21700    1.000
    H2384    H        0.76510    0.79000    0.17060    1.000
    C841     C        0.83170    0.79480    0.19430    1.000
    H2385    H        0.83890    0.77660    0.18480    1.000
    H2386    H        0.84750    0.80960    0.19320    1.000
    N141     N        0.77385    0.83458    0.10609    1.000
    C842     C        0.82420    0.78840    0.22700    1.000
    H2387    H        0.83610    0.80120    0.23980    1.000
    H2388    H        0.82910    0.76780    0.23170    1.000
    C843     C        0.84470    0.88140    0.14320    1.000
    H2389    H        0.82690    0.88900    0.13340    1.000
    H2390    H        0.83940    0.87650    0.16370    1.000
    H2391    H        0.84620    0.87100    0.08660    1.000
    C844     C        0.76460    0.85990    0.12280    1.000
    H2392    H        0.76140    0.85420    0.14350    1.000
    H2393    H        0.78010    0.87500    0.12220    1.000
    C845     C        0.74950    0.81240    0.10620    1.000
    H2394    H        0.75550    0.79490    0.09490    1.000
    H2395    H        0.74530    0.80620    0.12660    1.000
    C846     C        0.77800    0.84260    0.07550    1.000
    H2396    H        0.79440    0.85680    0.07400    1.000
    H2397    H        0.78340    0.82490    0.06410    1.000
    H2398    H        0.87640    0.33890    0.81400    1.000
    H2399    H        0.84760    0.28560    0.81040    1.000
    H2400    H        0.77950    0.25460    0.71700    1.000
    H2401    H        0.76510    0.29000    0.67060    1.000
    C847     C        0.83170    0.29480    0.69430    1.000
    H2402    H        0.83890    0.27660    0.68480    1.000
    H2403    H        0.84750    0.30960    0.69320    1.000
    N142     N        0.77385    0.33458    0.60609    1.000
    C848     C        0.82420    0.28840    0.72700    1.000
    H2404    H        0.83610    0.30120    0.73980    1.000
    H2405    H        0.82910    0.26780    0.73170    1.000
    C849     C        0.84470    0.38140    0.64320    1.000
    H2406    H        0.82690    0.38900    0.63340    1.000
    H2407    H        0.83940    0.37650    0.66370    1.000
    H2408    H        0.84620    0.37100    0.58660    1.000
    C850     C        0.76460    0.35990    0.62280    1.000
    H2409    H        0.76140    0.35420    0.64350    1.000
    H2410    H        0.78010    0.37500    0.62220    1.000
    C851     C        0.74950    0.31240    0.60620    1.000
    H2411    H        0.75550    0.29490    0.59490    1.000
    H2412    H        0.74530    0.30620    0.62660    1.000
    C852     C        0.77800    0.34260    0.57550    1.000
    H2413    H        0.79440    0.35680    0.57400    1.000
    H2414    H        0.78340    0.32490    0.56410    1.000
    H2415    H        0.37640    0.83890    0.81400    1.000
    H2416    H        0.34760    0.78560    0.81040    1.000
    H2417    H        0.27950    0.75460    0.71700    1.000
    H2418    H        0.26510    0.79000    0.67060    1.000
    C853     C        0.33170    0.79480    0.69430    1.000
    H2419    H        0.33890    0.77660    0.68480    1.000
    H2420    H        0.34750    0.80960    0.69320    1.000
    N143     N        0.27385    0.83458    0.60609    1.000
    C854     C        0.32420    0.78840    0.72700    1.000
    H2421    H        0.33610    0.80120    0.73980    1.000
    H2422    H        0.32910    0.76780    0.73170    1.000
    C855     C        0.34470    0.88140    0.64320    1.000
    H2423    H        0.32690    0.88900    0.63340    1.000
    H2424    H        0.33940    0.87650    0.66370    1.000
    H2425    H        0.34620    0.87100    0.58660    1.000
    C856     C        0.26460    0.85990    0.62280    1.000
    H2426    H        0.26140    0.85420    0.64350    1.000
    H2427    H        0.28010    0.87500    0.62220    1.000
    C857     C        0.24950    0.81240    0.60620    1.000
    H2428    H        0.25550    0.79490    0.59490    1.000
    H2429    H        0.24530    0.80620    0.62660    1.000
    C858     C        0.27800    0.84260    0.57550    1.000
    H2430    H        0.29440    0.85680    0.57400    1.000
    H2431    H        0.28340    0.82490    0.56410    1.000
    H2432    H        0.37640    0.33890    0.31400    1.000
    H2433    H        0.34760    0.28560    0.31040    1.000
    H2434    H        0.27950    0.25460    0.21700    1.000
    H2435    H        0.26510    0.29000    0.17060    1.000
    C859     C        0.33170    0.29480    0.19430    1.000
    H2436    H        0.33890    0.27660    0.18480    1.000
    H2437    H        0.34750    0.30960    0.19320    1.000
    N144     N        0.27385    0.33458    0.10609    1.000
    C860     C        0.32420    0.28840    0.22700    1.000
    H2438    H        0.33610    0.30120    0.23980    1.000
    H2439    H        0.32910    0.26780    0.23170    1.000
    C861     C        0.34470    0.38140    0.14320    1.000
    H2440    H        0.32690    0.38900    0.13340    1.000
    H2441    H        0.33940    0.37650    0.16370    1.000
    H2442    H        0.34620    0.37100    0.08660    1.000
    C862     C        0.26460    0.35990    0.12280    1.000
    H2443    H        0.26140    0.35420    0.14350    1.000
    H2444    H        0.28010    0.37500    0.12220    1.000
    C863     C        0.24950    0.31240    0.10620    1.000
    H2445    H        0.25550    0.29490    0.09490    1.000
    H2446    H        0.24530    0.30620    0.12660    1.000
    C864     C        0.27800    0.34260    0.07550    1.000
    H2447    H        0.29440    0.35680    0.07400    1.000
    H2448    H        0.28340    0.32490    0.06410    1.000
    H2449    H        0.62360    0.56400    0.58890    1.000
    H2450    H        0.65240    0.56040    0.53560    1.000
    H2451    H        0.72050    0.46700    0.50460    1.000
    H2452    H        0.73490    0.42060    0.54000    1.000
    C865     C        0.66830    0.44430    0.54480    1.000
    H2453    H        0.66110    0.43480    0.52660    1.000
    H2454    H        0.65250    0.44320    0.55960    1.000
    N145     N        0.72615    0.35609    0.58458    1.000
    C866     C        0.67580    0.47700    0.53840    1.000
    H2455    H        0.66390    0.48980    0.55120    1.000
    H2456    H        0.67090    0.48170    0.51780    1.000
    C867     C        0.65530    0.39320    0.63140    1.000
    H2457    H        0.67310    0.38340    0.63900    1.000
    H2458    H        0.66060    0.41370    0.62650    1.000
    H2459    H        0.65380    0.33660    0.62100    1.000
    C868     C        0.73540    0.37280    0.60990    1.000
    H2460    H        0.73860    0.39350    0.60420    1.000
    H2461    H        0.71990    0.37220    0.62500    1.000
    C869     C        0.75050    0.35620    0.56240    1.000
    H2462    H        0.74450    0.34490    0.54490    1.000
    H2463    H        0.75470    0.37660    0.55620    1.000
    C870     C        0.72200    0.32550    0.59260    1.000
    H2464    H        0.70560    0.32400    0.60680    1.000
    H2465    H        0.71660    0.31410    0.57490    1.000
    H2466    H        0.62360    0.06400    0.08890    1.000
    H2467    H        0.65240    0.06040    0.03560    1.000
    H2468    H        0.72050    0.96700    0.00460    1.000
    H2469    H        0.73490    0.92060    0.04000    1.000
    C871     C        0.66830    0.94430    0.04480    1.000
    H2470    H        0.66110    0.93480    0.02660    1.000
    H2471    H        0.65250    0.94320    0.05960    1.000
    N146     N        0.72615    0.85609    0.08458    1.000
    C872     C        0.67580    0.97700    0.03840    1.000
    H2472    H        0.66390    0.98980    0.05120    1.000
    H2473    H        0.67090    0.98170    0.01780    1.000
    C873     C        0.65530    0.89320    0.13140    1.000
    H2474    H        0.67310    0.88340    0.13900    1.000
    H2475    H        0.66060    0.91370    0.12650    1.000
    H2476    H        0.65380    0.83660    0.12100    1.000
    C874     C        0.73540    0.87280    0.10990    1.000
    H2477    H        0.73860    0.89350    0.10420    1.000
    H2478    H        0.71990    0.87220    0.12500    1.000
    C875     C        0.75050    0.85620    0.06240    1.000
    H2479    H        0.74450    0.84490    0.04490    1.000
    H2480    H        0.75470    0.87660    0.05620    1.000
    C876     C        0.72200    0.82550    0.09260    1.000
    H2481    H        0.70560    0.82400    0.10680    1.000
    H2482    H        0.71660    0.81410    0.07490    1.000
    H2483    H        0.12360    0.56400    0.08890    1.000
    H2484    H        0.15240    0.56040    0.03560    1.000
    H2485    H        0.22050    0.46700    0.00460    1.000
    H2486    H        0.23490    0.42060    0.04000    1.000
    C877     C        0.16830    0.44430    0.04480    1.000
    H2487    H        0.16110    0.43480    0.02660    1.000
    H2488    H        0.15250    0.44320    0.05960    1.000
    N147     N        0.22615    0.35609    0.08458    1.000
    C878     C        0.17580    0.47700    0.03840    1.000
    H2489    H        0.16390    0.48980    0.05120    1.000
    H2490    H        0.17090    0.48170    0.01780    1.000
    C879     C        0.15530    0.39320    0.13140    1.000
    H2491    H        0.17310    0.38340    0.13900    1.000
    H2492    H        0.16060    0.41370    0.12650    1.000
    H2493    H        0.15380    0.33660    0.12100    1.000
    C880     C        0.23540    0.37280    0.10990    1.000
    H2494    H        0.23860    0.39350    0.10420    1.000
    H2495    H        0.21990    0.37220    0.12500    1.000
    C881     C        0.25050    0.35620    0.06240    1.000
    H2496    H        0.24450    0.34490    0.04490    1.000
    H2497    H        0.25470    0.37660    0.05620    1.000
    C882     C        0.22200    0.32550    0.09260    1.000
    H2498    H        0.20560    0.32400    0.10680    1.000
    H2499    H        0.21660    0.31410    0.07490    1.000
    H2500    H        0.12360    0.06400    0.58890    1.000
    H2501    H        0.15240    0.06040    0.53560    1.000
    H2502    H        0.22050    0.96700    0.50460    1.000
    H2503    H        0.23490    0.92060    0.54000    1.000
    C883     C        0.16830    0.94430    0.54480    1.000
    H2504    H        0.16110    0.93480    0.52660    1.000
    H2505    H        0.15250    0.94320    0.55960    1.000
    N148     N        0.22615    0.85609    0.58458    1.000
    C884     C        0.17580    0.97700    0.53840    1.000
    H2506    H        0.16390    0.98980    0.55120    1.000
    H2507    H        0.17090    0.98170    0.51780    1.000
    C885     C        0.15530    0.89320    0.63140    1.000
    H2508    H        0.17310    0.88340    0.63900    1.000
    H2509    H        0.16060    0.91370    0.62650    1.000
    H2510    H        0.15380    0.83660    0.62100    1.000
    C886     C        0.23540    0.87280    0.60990    1.000
    H2511    H        0.23860    0.89350    0.60420    1.000
    H2512    H        0.21990    0.87220    0.62500    1.000
    C887     C        0.25050    0.85620    0.56240    1.000
    H2513    H        0.24450    0.84490    0.54490    1.000
    H2514    H        0.25470    0.87660    0.55620    1.000
    C888     C        0.22200    0.82550    0.59260    1.000
    H2515    H        0.20560    0.82400    0.60680    1.000
    H2516    H        0.21660    0.81410    0.57490    1.000
    H2517    H        0.62640    0.18600    0.08890    1.000
    H2518    H        0.59760    0.18960    0.03560    1.000
    H2519    H        0.52950    0.28300    0.00460    1.000
    H2520    H        0.51510    0.32940    0.04000    1.000
    C889     C        0.58170    0.30570    0.04480    1.000
    H2521    H        0.58890    0.31520    0.02660    1.000
    H2522    H        0.59750    0.30680    0.05960    1.000
    N149     N        0.52385    0.39391    0.08458    1.000
    C890     C        0.57420    0.27300    0.03840    1.000
    H2523    H        0.58610    0.26020    0.05120    1.000
    H2524    H        0.57910    0.26830    0.01780    1.000
    C891     C        0.59470    0.35680    0.13140    1.000
    H2525    H        0.57690    0.36660    0.13900    1.000
    H2526    H        0.58940    0.33630    0.12650    1.000
    H2527    H        0.59620    0.41340    0.12100    1.000
    C892     C        0.51460    0.37720    0.10990    1.000
    H2528    H        0.51140    0.35650    0.10420    1.000
    H2529    H        0.53010    0.37780    0.12500    1.000
    C893     C        0.49950    0.39380    0.06240    1.000
    H2530    H        0.50550    0.40510    0.04490    1.000
    H2531    H        0.49530    0.37340    0.05620    1.000
    C894     C        0.52800    0.42450    0.09260    1.000
    H2532    H        0.54440    0.42600    0.10680    1.000
    H2533    H        0.53340    0.43590    0.07490    1.000
    H2534    H        0.62640    0.68600    0.58890    1.000
    H2535    H        0.59760    0.68960    0.53560    1.000
    H2536    H        0.52950    0.78300    0.50460    1.000
    H2537    H        0.51510    0.82940    0.54000    1.000
    C895     C        0.58170    0.80570    0.54480    1.000
    H2538    H        0.58890    0.81520    0.52660    1.000
    H2539    H        0.59750    0.80680    0.55960    1.000
    N150     N        0.52385    0.89391    0.58458    1.000
    C896     C        0.57420    0.77300    0.53840    1.000
    H2540    H        0.58610    0.76020    0.55120    1.000
    H2541    H        0.57910    0.76830    0.51780    1.000
    C897     C        0.59470    0.85680    0.63140    1.000
    H2542    H        0.57690    0.86660    0.63900    1.000
    H2543    H        0.58940    0.83630    0.62650    1.000
    H2544    H        0.59620    0.91340    0.62100    1.000
    C898     C        0.51460    0.87720    0.60990    1.000
    H2545    H        0.51140    0.85650    0.60420    1.000
    H2546    H        0.53010    0.87780    0.62500    1.000
    C899     C        0.49950    0.89380    0.56240    1.000
    H2547    H        0.50550    0.90510    0.54490    1.000
    H2548    H        0.49530    0.87340    0.55620    1.000
    C900     C        0.52800    0.92450    0.59260    1.000
    H2549    H        0.54440    0.92600    0.60680    1.000
    H2550    H        0.53340    0.93590    0.57490    1.000
    H2551    H        0.12640    0.18600    0.58890    1.000
    H2552    H        0.09760    0.18960    0.53560    1.000
    H2553    H        0.02950    0.28300    0.50460    1.000
    H2554    H        0.01510    0.32940    0.54000    1.000
    C901     C        0.08170    0.30570    0.54480    1.000
    H2555    H        0.08890    0.31520    0.52660    1.000
    H2556    H        0.09750    0.30680    0.55960    1.000
    N151     N        0.02385    0.39391    0.58458    1.000
    C902     C        0.07420    0.27300    0.53840    1.000
    H2557    H        0.08610    0.26020    0.55120    1.000
    H2558    H        0.07910    0.26830    0.51780    1.000
    C903     C        0.09470    0.35680    0.63140    1.000
    H2559    H        0.07690    0.36660    0.63900    1.000
    H2560    H        0.08940    0.33630    0.62650    1.000
    H2561    H        0.09620    0.41340    0.62100    1.000
    C904     C        0.01460    0.37720    0.60990    1.000
    H2562    H        0.01140    0.35650    0.60420    1.000
    H2563    H        0.03010    0.37780    0.62500    1.000
    C905     C        0.99950    0.39380    0.56240    1.000
    H2564    H        0.00550    0.40510    0.54490    1.000
    H2565    H        0.99530    0.37340    0.55620    1.000
    C906     C        0.02800    0.42450    0.59260    1.000
    H2566    H        0.04440    0.42600    0.60680    1.000
    H2567    H        0.03340    0.43590    0.57490    1.000
    H2568    H        0.12640    0.68600    0.08890    1.000
    H2569    H        0.09760    0.68960    0.03560    1.000
    H2570    H        0.02950    0.78300    0.00460    1.000
    H2571    H        0.01510    0.82940    0.04000    1.000
    C907     C        0.08170    0.80570    0.04480    1.000
    H2572    H        0.08890    0.81520    0.02660    1.000
    H2573    H        0.09750    0.80680    0.05960    1.000
    N152     N        0.02385    0.89391    0.08458    1.000
    C908     C        0.07420    0.77300    0.03840    1.000
    H2574    H        0.08610    0.76020    0.05120    1.000
    H2575    H        0.07910    0.76830    0.01780    1.000
    C909     C        0.09470    0.85680    0.13140    1.000
    H2576    H        0.07690    0.86660    0.13900    1.000
    H2577    H        0.08940    0.83630    0.12650    1.000
    H2578    H        0.09620    0.91340    0.12100    1.000
    C910     C        0.01460    0.87720    0.10990    1.000
    H2579    H        0.01140    0.85650    0.10420    1.000
    H2580    H        0.03010    0.87780    0.12500    1.000
    C911     C        0.99950    0.89380    0.06240    1.000
    H2581    H        0.00550    0.90510    0.04490    1.000
    H2582    H        0.99530    0.87340    0.05620    1.000
    C912     C        0.02800    0.92450    0.09260    1.000
    H2583    H        0.04440    0.92600    0.10680    1.000
    H2584    H        0.03340    0.93590    0.07490    1.000
    H2585    H        0.12360    0.68600    0.16110    1.000
    H2586    H        0.15240    0.68960    0.21440    1.000
    H2587    H        0.22050    0.78300    0.24540    1.000
    H2588    H        0.23490    0.82940    0.21000    1.000
    C913     C        0.16830    0.80570    0.20520    1.000
    H2589    H        0.16110    0.81520    0.22340    1.000
    H2590    H        0.15250    0.80680    0.19040    1.000
    N153     N        0.22615    0.89391    0.16542    1.000
    C914     C        0.17580    0.77300    0.21160    1.000
    H2591    H        0.16390    0.76020    0.19880    1.000
    H2592    H        0.17090    0.76830    0.23220    1.000
    C915     C        0.15530    0.85680    0.11860    1.000
    H2593    H        0.17310    0.86660    0.11100    1.000
    H2594    H        0.16060    0.83630    0.12350    1.000
    H2595    H        0.15380    0.91340    0.12900    1.000
    C916     C        0.23540    0.87720    0.14010    1.000
    H2596    H        0.23860    0.85650    0.14580    1.000
    H2597    H        0.21990    0.87780    0.12500    1.000
    C917     C        0.25050    0.89380    0.18760    1.000
    H2598    H        0.24450    0.90510    0.20510    1.000
    H2599    H        0.25470    0.87340    0.19380    1.000
    C918     C        0.22200    0.92450    0.15740    1.000
    H2600    H        0.20560    0.92600    0.14320    1.000
    H2601    H        0.21660    0.93590    0.17510    1.000
    H2602    H        0.12360    0.18600    0.66110    1.000
    H2603    H        0.15240    0.18960    0.71440    1.000
    H2604    H        0.22050    0.28300    0.74540    1.000
    H2605    H        0.23490    0.32940    0.71000    1.000
    C919     C        0.16830    0.30570    0.70520    1.000
    H2606    H        0.16110    0.31520    0.72340    1.000
    H2607    H        0.15250    0.30680    0.69040    1.000
    N154     N        0.22615    0.39391    0.66542    1.000
    C920     C        0.17580    0.27300    0.71160    1.000
    H2608    H        0.16390    0.26020    0.69880    1.000
    H2609    H        0.17090    0.26830    0.73220    1.000
    C921     C        0.15530    0.35680    0.61860    1.000
    H2610    H        0.17310    0.36660    0.61100    1.000
    H2611    H        0.16060    0.33630    0.62350    1.000
    H2612    H        0.15380    0.41340    0.62900    1.000
    C922     C        0.23540    0.37720    0.64010    1.000
    H2613    H        0.23860    0.35650    0.64580    1.000
    H2614    H        0.21990    0.37780    0.62500    1.000
    C923     C        0.25050    0.39380    0.68760    1.000
    H2615    H        0.24450    0.40510    0.70510    1.000
    H2616    H        0.25470    0.37340    0.69380    1.000
    C924     C        0.22200    0.42450    0.65740    1.000
    H2617    H        0.20560    0.42600    0.64320    1.000
    H2618    H        0.21660    0.43590    0.67510    1.000
    H2619    H        0.62360    0.68600    0.66110    1.000
    H2620    H        0.65240    0.68960    0.71440    1.000
    H2621    H        0.72050    0.78300    0.74540    1.000
    H2622    H        0.73490    0.82940    0.71000    1.000
    C925     C        0.66830    0.80570    0.70520    1.000
    H2623    H        0.66110    0.81520    0.72340    1.000
    H2624    H        0.65250    0.80680    0.69040    1.000
    N155     N        0.72615    0.89391    0.66542    1.000
    C926     C        0.67580    0.77300    0.71160    1.000
    H2625    H        0.66390    0.76020    0.69880    1.000
    H2626    H        0.67090    0.76830    0.73220    1.000
    C927     C        0.65530    0.85680    0.61860    1.000
    H2627    H        0.67310    0.86660    0.61100    1.000
    H2628    H        0.66060    0.83630    0.62350    1.000
    H2629    H        0.65380    0.91340    0.62900    1.000
    C928     C        0.73540    0.87720    0.64010    1.000
    H2630    H        0.73860    0.85650    0.64580    1.000
    H2631    H        0.71990    0.87780    0.62500    1.000
    C929     C        0.75050    0.89380    0.68760    1.000
    H2632    H        0.74450    0.90510    0.70510    1.000
    H2633    H        0.75470    0.87340    0.69380    1.000
    C930     C        0.72200    0.92450    0.65740    1.000
    H2634    H        0.70560    0.92600    0.64320    1.000
    H2635    H        0.71660    0.93590    0.67510    1.000
    H2636    H        0.62360    0.18600    0.16110    1.000
    H2637    H        0.65240    0.18960    0.21440    1.000
    H2638    H        0.72050    0.28300    0.24540    1.000
    H2639    H        0.73490    0.32940    0.21000    1.000
    C931     C        0.66830    0.30570    0.20520    1.000
    H2640    H        0.66110    0.31520    0.22340    1.000
    H2641    H        0.65250    0.30680    0.19040    1.000
    N156     N        0.72615    0.39391    0.16542    1.000
    C932     C        0.67580    0.27300    0.21160    1.000
    H2642    H        0.66390    0.26020    0.19880    1.000
    H2643    H        0.67090    0.26830    0.23220    1.000
    C933     C        0.65530    0.35680    0.11860    1.000
    H2644    H        0.67310    0.36660    0.11100    1.000
    H2645    H        0.66060    0.33630    0.12350    1.000
    H2646    H        0.65380    0.41340    0.12900    1.000
    C934     C        0.73540    0.37720    0.14010    1.000
    H2647    H        0.73860    0.35650    0.14580    1.000
    H2648    H        0.71990    0.37780    0.12500    1.000
    C935     C        0.75050    0.39380    0.18760    1.000
    H2649    H        0.74450    0.40510    0.20510    1.000
    H2650    H        0.75470    0.37340    0.19380    1.000
    C936     C        0.72200    0.42450    0.15740    1.000
    H2651    H        0.70560    0.42600    0.14320    1.000
    H2652    H        0.71660    0.43590    0.17510    1.000
    H2653    H        0.12640    0.06400    0.66110    1.000
    H2654    H        0.09760    0.06040    0.71440    1.000
    H2655    H        0.02950    0.96700    0.74540    1.000
    H2656    H        0.01510    0.92060    0.71000    1.000
    C937     C        0.08170    0.94430    0.70520    1.000
    H2657    H        0.08890    0.93480    0.72340    1.000
    H2658    H        0.09750    0.94320    0.69040    1.000
    N157     N        0.02385    0.85609    0.66542    1.000
    C938     C        0.07420    0.97700    0.71160    1.000
    H2659    H        0.08610    0.98980    0.69880    1.000
    H2660    H        0.07910    0.98170    0.73220    1.000
    C939     C        0.09470    0.89320    0.61860    1.000
    H2661    H        0.07690    0.88340    0.61100    1.000
    H2662    H        0.08940    0.91370    0.62350    1.000
    H2663    H        0.09620    0.83660    0.62900    1.000
    C940     C        0.01460    0.87280    0.64010    1.000
    H2664    H        0.01140    0.89350    0.64580    1.000
    H2665    H        0.03010    0.87220    0.62500    1.000
    C941     C        0.99950    0.85620    0.68760    1.000
    H2666    H        0.00550    0.84490    0.70510    1.000
    H2667    H        0.99530    0.87660    0.69380    1.000
    C942     C        0.02800    0.82550    0.65740    1.000
    H2668    H        0.04440    0.82400    0.64320    1.000
    H2669    H        0.03340    0.81410    0.67510    1.000
    H2670    H        0.12640    0.56400    0.16110    1.000
    H2671    H        0.09760    0.56040    0.21440    1.000
    H2672    H        0.02950    0.46700    0.24540    1.000
    H2673    H        0.01510    0.42060    0.21000    1.000
    C943     C        0.08170    0.44430    0.20520    1.000
    H2674    H        0.08890    0.43480    0.22340    1.000
    H2675    H        0.09750    0.44320    0.19040    1.000
    N158     N        0.02385    0.35609    0.16542    1.000
    C944     C        0.07420    0.47700    0.21160    1.000
    H2676    H        0.08610    0.48980    0.19880    1.000
    H2677    H        0.07910    0.48170    0.23220    1.000
    C945     C        0.09470    0.39320    0.11860    1.000
    H2678    H        0.07690    0.38340    0.11100    1.000
    H2679    H        0.08940    0.41370    0.12350    1.000
    H2680    H        0.09620    0.33660    0.12900    1.000
    C946     C        0.01460    0.37280    0.14010    1.000
    H2681    H        0.01140    0.39350    0.14580    1.000
    H2682    H        0.03010    0.37220    0.12500    1.000
    C947     C        0.99950    0.35620    0.18760    1.000
    H2683    H        0.00550    0.34490    0.20510    1.000
    H2684    H        0.99530    0.37660    0.19380    1.000
    C948     C        0.02800    0.32550    0.15740    1.000
    H2685    H        0.04440    0.32400    0.14320    1.000
    H2686    H        0.03340    0.31410    0.17510    1.000
    H2687    H        0.62640    0.06400    0.16110    1.000
    H2688    H        0.59760    0.06040    0.21440    1.000
    H2689    H        0.52950    0.96700    0.24540    1.000
    H2690    H        0.51510    0.92060    0.21000    1.000
    C949     C        0.58170    0.94430    0.20520    1.000
    H2691    H        0.58890    0.93480    0.22340    1.000
    H2692    H        0.59750    0.94320    0.19040    1.000
    N159     N        0.52385    0.85609    0.16542    1.000
    C950     C        0.57420    0.97700    0.21160    1.000
    H2693    H        0.58610    0.98980    0.19880    1.000
    H2694    H        0.57910    0.98170    0.23220    1.000
    C951     C        0.59470    0.89320    0.11860    1.000
    H2695    H        0.57690    0.88340    0.11100    1.000
    H2696    H        0.58940    0.91370    0.12350    1.000
    H2697    H        0.59620    0.83660    0.12900    1.000
    C952     C        0.51460    0.87280    0.14010    1.000
    H2698    H        0.51140    0.89350    0.14580    1.000
    H2699    H        0.53010    0.87220    0.12500    1.000
    C953     C        0.49950    0.85620    0.18760    1.000
    H2700    H        0.50550    0.84490    0.20510    1.000
    H2701    H        0.49530    0.87660    0.19380    1.000
    C954     C        0.52800    0.82550    0.15740    1.000
    H2702    H        0.54440    0.82400    0.14320    1.000
    H2703    H        0.53340    0.81410    0.17510    1.000
    H2704    H        0.62640    0.56400    0.66110    1.000
    H2705    H        0.59760    0.56040    0.71440    1.000
    H2706    H        0.52950    0.46700    0.74540    1.000
    H2707    H        0.51510    0.42060    0.71000    1.000
    C955     C        0.58170    0.44430    0.70520    1.000
    H2708    H        0.58890    0.43480    0.72340    1.000
    H2709    H        0.59750    0.44320    0.69040    1.000
    N160     N        0.52385    0.35609    0.66542    1.000
    C956     C        0.57420    0.47700    0.71160    1.000
    H2710    H        0.58610    0.48980    0.69880    1.000
    H2711    H        0.57910    0.48170    0.73220    1.000
    C957     C        0.59470    0.39320    0.61860    1.000
    H2712    H        0.57690    0.38340    0.61100    1.000
    H2713    H        0.58940    0.41370    0.62350    1.000
    H2714    H        0.59620    0.33660    0.62900    1.000
    C958     C        0.51460    0.37280    0.64010    1.000
    H2715    H        0.51140    0.39350    0.64580    1.000
    H2716    H        0.53010    0.37220    0.62500    1.000
    C959     C        0.49950    0.35620    0.68760    1.000
    H2717    H        0.50550    0.34490    0.70510    1.000
    H2718    H        0.49530    0.37660    0.69380    1.000
    C960     C        0.52800    0.32550    0.65740    1.000
    H2719    H        0.54440    0.32400    0.64320    1.000
    H2720    H        0.53340    0.31410    0.67510    1.000
    H2721    H        0.06400    0.66110    0.12640    1.000
    H2722    H        0.06040    0.71440    0.09760    1.000
    H2723    H        0.96700    0.74540    0.02950    1.000
    H2724    H        0.92060    0.71000    0.01510    1.000
    C961     C        0.94430    0.70520    0.08170    1.000
    H2725    H        0.93480    0.72340    0.08890    1.000
    H2726    H        0.94320    0.69040    0.09750    1.000
    N161     N        0.85609    0.66542    0.02385    1.000
    C962     C        0.97700    0.71160    0.07420    1.000
    H2727    H        0.98980    0.69880    0.08610    1.000
    H2728    H        0.98170    0.73220    0.07910    1.000
    C963     C        0.89320    0.61860    0.09470    1.000
    H2729    H        0.88340    0.61100    0.07690    1.000
    H2730    H        0.91370    0.62350    0.08940    1.000
    H2731    H        0.83660    0.62900    0.09620    1.000
    C964     C        0.87280    0.64010    0.01460    1.000
    H2732    H        0.89350    0.64580    0.01140    1.000
    H2733    H        0.87220    0.62500    0.03010    1.000
    C965     C        0.85620    0.68760    0.99950    1.000
    H2734    H        0.84490    0.70510    0.00550    1.000
    H2735    H        0.87660    0.69380    0.99530    1.000
    C966     C        0.82550    0.65740    0.02800    1.000
    H2736    H        0.82400    0.64320    0.04440    1.000
    H2737    H        0.81410    0.67510    0.03340    1.000
    H2738    H        0.06400    0.16110    0.62640    1.000
    H2739    H        0.06040    0.21440    0.59760    1.000
    H2740    H        0.96700    0.24540    0.52950    1.000
    H2741    H        0.92060    0.21000    0.51510    1.000
    C967     C        0.94430    0.20520    0.58170    1.000
    H2742    H        0.93480    0.22340    0.58890    1.000
    H2743    H        0.94320    0.19040    0.59750    1.000
    N162     N        0.85609    0.16542    0.52385    1.000
    C968     C        0.97700    0.21160    0.57420    1.000
    H2744    H        0.98980    0.19880    0.58610    1.000
    H2745    H        0.98170    0.23220    0.57910    1.000
    C969     C        0.89320    0.11860    0.59470    1.000
    H2746    H        0.88340    0.11100    0.57690    1.000
    H2747    H        0.91370    0.12350    0.58940    1.000
    H2748    H        0.83660    0.12900    0.59620    1.000
    C970     C        0.87280    0.14010    0.51460    1.000
    H2749    H        0.89350    0.14580    0.51140    1.000
    H2750    H        0.87220    0.12500    0.53010    1.000
    C971     C        0.85620    0.18760    0.49950    1.000
    H2751    H        0.84490    0.20510    0.50550    1.000
    H2752    H        0.87660    0.19380    0.49530    1.000
    C972     C        0.82550    0.15740    0.52800    1.000
    H2753    H        0.82400    0.14320    0.54440    1.000
    H2754    H        0.81410    0.17510    0.53340    1.000
    H2755    H        0.56400    0.66110    0.62640    1.000
    H2756    H        0.56040    0.71440    0.59760    1.000
    H2757    H        0.46700    0.74540    0.52950    1.000
    H2758    H        0.42060    0.71000    0.51510    1.000
    C973     C        0.44430    0.70520    0.58170    1.000
    H2759    H        0.43480    0.72340    0.58890    1.000
    H2760    H        0.44320    0.69040    0.59750    1.000
    N163     N        0.35609    0.66542    0.52385    1.000
    C974     C        0.47700    0.71160    0.57420    1.000
    H2761    H        0.48980    0.69880    0.58610    1.000
    H2762    H        0.48170    0.73220    0.57910    1.000
    C975     C        0.39320    0.61860    0.59470    1.000
    H2763    H        0.38340    0.61100    0.57690    1.000
    H2764    H        0.41370    0.62350    0.58940    1.000
    H2765    H        0.33660    0.62900    0.59620    1.000
    C976     C        0.37280    0.64010    0.51460    1.000
    H2766    H        0.39350    0.64580    0.51140    1.000
    H2767    H        0.37220    0.62500    0.53010    1.000
    C977     C        0.35620    0.68760    0.49950    1.000
    H2768    H        0.34490    0.70510    0.50550    1.000
    H2769    H        0.37660    0.69380    0.49530    1.000
    C978     C        0.32550    0.65740    0.52800    1.000
    H2770    H        0.32400    0.64320    0.54440    1.000
    H2771    H        0.31410    0.67510    0.53340    1.000
    H2772    H        0.56400    0.16110    0.12640    1.000
    H2773    H        0.56040    0.21440    0.09760    1.000
    H2774    H        0.46700    0.24540    0.02950    1.000
    H2775    H        0.42060    0.21000    0.01510    1.000
    C979     C        0.44430    0.20520    0.08170    1.000
    H2776    H        0.43480    0.22340    0.08890    1.000
    H2777    H        0.44320    0.19040    0.09750    1.000
    N164     N        0.35609    0.16542    0.02385    1.000
    C980     C        0.47700    0.21160    0.07420    1.000
    H2778    H        0.48980    0.19880    0.08610    1.000
    H2779    H        0.48170    0.23220    0.07910    1.000
    C981     C        0.39320    0.11860    0.09470    1.000
    H2780    H        0.38340    0.11100    0.07690    1.000
    H2781    H        0.41370    0.12350    0.08940    1.000
    H2782    H        0.33660    0.12900    0.09620    1.000
    C982     C        0.37280    0.14010    0.01460    1.000
    H2783    H        0.39350    0.14580    0.01140    1.000
    H2784    H        0.37220    0.12500    0.03010    1.000
    C983     C        0.35620    0.18760    0.99950    1.000
    H2785    H        0.34490    0.20510    0.00550    1.000
    H2786    H        0.37660    0.19380    0.99530    1.000
    C984     C        0.32550    0.15740    0.02800    1.000
    H2787    H        0.32400    0.14320    0.04440    1.000
    H2788    H        0.31410    0.17510    0.03340    1.000
    H2789    H        0.68600    0.16110    0.12360    1.000
    H2790    H        0.68960    0.21440    0.15240    1.000
    H2791    H        0.78300    0.24540    0.22050    1.000
    H2792    H        0.82940    0.21000    0.23490    1.000
    C985     C        0.80570    0.20520    0.16830    1.000
    H2793    H        0.81520    0.22340    0.16110    1.000
    H2794    H        0.80680    0.19040    0.15250    1.000
    N165     N        0.89391    0.16542    0.22615    1.000
    C986     C        0.77300    0.21160    0.17580    1.000
    H2795    H        0.76020    0.19880    0.16390    1.000
    H2796    H        0.76830    0.23220    0.17090    1.000
    C987     C        0.85680    0.11860    0.15530    1.000
    H2797    H        0.86660    0.11100    0.17310    1.000
    H2798    H        0.83630    0.12350    0.16060    1.000
    H2799    H        0.91340    0.12900    0.15380    1.000
    C988     C        0.87720    0.14010    0.23540    1.000
    H2800    H        0.85650    0.14580    0.23860    1.000
    H2801    H        0.87780    0.12500    0.21990    1.000
    C989     C        0.89380    0.18760    0.25050    1.000
    H2802    H        0.90510    0.20510    0.24450    1.000
    H2803    H        0.87340    0.19380    0.25470    1.000
    C990     C        0.92450    0.15740    0.22200    1.000
    H2804    H        0.92600    0.14320    0.20560    1.000
    H2805    H        0.93590    0.17510    0.21660    1.000
    H2806    H        0.68600    0.66110    0.62360    1.000
    H2807    H        0.68960    0.71440    0.65240    1.000
    H2808    H        0.78300    0.74540    0.72050    1.000
    H2809    H        0.82940    0.71000    0.73490    1.000
    C991     C        0.80570    0.70520    0.66830    1.000
    H2810    H        0.81520    0.72340    0.66110    1.000
    H2811    H        0.80680    0.69040    0.65250    1.000
    N166     N        0.89391    0.66542    0.72615    1.000
    C992     C        0.77300    0.71160    0.67580    1.000
    H2812    H        0.76020    0.69880    0.66390    1.000
    H2813    H        0.76830    0.73220    0.67090    1.000
    C993     C        0.85680    0.61860    0.65530    1.000
    H2814    H        0.86660    0.61100    0.67310    1.000
    H2815    H        0.83630    0.62350    0.66060    1.000
    H2816    H        0.91340    0.62900    0.65380    1.000
    C994     C        0.87720    0.64010    0.73540    1.000
    H2817    H        0.85650    0.64580    0.73860    1.000
    H2818    H        0.87780    0.62500    0.71990    1.000
    C995     C        0.89380    0.68760    0.75050    1.000
    H2819    H        0.90510    0.70510    0.74450    1.000
    H2820    H        0.87340    0.69380    0.75470    1.000
    C996     C        0.92450    0.65740    0.72200    1.000
    H2821    H        0.92600    0.64320    0.70560    1.000
    H2822    H        0.93590    0.67510    0.71660    1.000
    H2823    H        0.18600    0.16110    0.62360    1.000
    H2824    H        0.18960    0.21440    0.65240    1.000
    H2825    H        0.28300    0.24540    0.72050    1.000
    H2826    H        0.32940    0.21000    0.73490    1.000
    C997     C        0.30570    0.20520    0.66830    1.000
    H2827    H        0.31520    0.22340    0.66110    1.000
    H2828    H        0.30680    0.19040    0.65250    1.000
    N167     N        0.39391    0.16542    0.72615    1.000
    C998     C        0.27300    0.21160    0.67580    1.000
    H2829    H        0.26020    0.19880    0.66390    1.000
    H2830    H        0.26830    0.23220    0.67090    1.000
    C999     C        0.35680    0.11860    0.65530    1.000
    H2831    H        0.36660    0.11100    0.67310    1.000
    H2832    H        0.33630    0.12350    0.66060    1.000
    H2833    H        0.41340    0.12900    0.65380    1.000
    C1000    C        0.37720    0.14010    0.73540    1.000
    H2834    H        0.35650    0.14580    0.73860    1.000
    H2835    H        0.37780    0.12500    0.71990    1.000
    C1001    C        0.39380    0.18760    0.75050    1.000
    H2836    H        0.40510    0.20510    0.74450    1.000
    H2837    H        0.37340    0.19380    0.75470    1.000
    C1002    C        0.42450    0.15740    0.72200    1.000
    H2838    H        0.42600    0.14320    0.70560    1.000
    H2839    H        0.43590    0.17510    0.71660    1.000
    H2840    H        0.18600    0.66110    0.12360    1.000
    H2841    H        0.18960    0.71440    0.15240    1.000
    H2842    H        0.28300    0.74540    0.22050    1.000
    H2843    H        0.32940    0.71000    0.23490    1.000
    C1003    C        0.30570    0.70520    0.16830    1.000
    H2844    H        0.31520    0.72340    0.16110    1.000
    H2845    H        0.30680    0.69040    0.15250    1.000
    N168     N        0.39391    0.66542    0.22615    1.000
    C1004    C        0.27300    0.71160    0.17580    1.000
    H2846    H        0.26020    0.69880    0.16390    1.000
    H2847    H        0.26830    0.73220    0.17090    1.000
    C1005    C        0.35680    0.61860    0.15530    1.000
    H2848    H        0.36660    0.61100    0.17310    1.000
    H2849    H        0.33630    0.62350    0.16060    1.000
    H2850    H        0.41340    0.62900    0.15380    1.000
    C1006    C        0.37720    0.64010    0.23540    1.000
    H2851    H        0.35650    0.64580    0.23860    1.000
    H2852    H        0.37780    0.62500    0.21990    1.000
    C1007    C        0.39380    0.68760    0.25050    1.000
    H2853    H        0.40510    0.70510    0.24450    1.000
    H2854    H        0.37340    0.69380    0.25470    1.000
    C1008    C        0.42450    0.65740    0.22200    1.000
    H2855    H        0.42600    0.64320    0.20560    1.000
    H2856    H        0.43590    0.67510    0.21660    1.000
    H2857    H        0.18600    0.08890    0.62640    1.000
    H2858    H        0.18960    0.03560    0.59760    1.000
    H2859    H        0.28300    0.00460    0.52950    1.000
    H2860    H        0.32940    0.04000    0.51510    1.000
    C1009    C        0.30570    0.04480    0.58170    1.000
    H2861    H        0.31520    0.02660    0.58890    1.000
    H2862    H        0.30680    0.05960    0.59750    1.000
    N169     N        0.39391    0.08458    0.52385    1.000
    C1010    C        0.27300    0.03840    0.57420    1.000
    H2863    H        0.26020    0.05120    0.58610    1.000
    H2864    H        0.26830    0.01780    0.57910    1.000
    C1011    C        0.35680    0.13140    0.59470    1.000
    H2865    H        0.36660    0.13900    0.57690    1.000
    H2866    H        0.33630    0.12650    0.58940    1.000
    H2867    H        0.41340    0.12100    0.59620    1.000
    C1012    C        0.37720    0.10990    0.51460    1.000
    H2868    H        0.35650    0.10420    0.51140    1.000
    H2869    H        0.37780    0.12500    0.53010    1.000
    C1013    C        0.39380    0.06240    0.49950    1.000
    H2870    H        0.40510    0.04490    0.50550    1.000
    H2871    H        0.37340    0.05620    0.49530    1.000
    C1014    C        0.42450    0.09260    0.52800    1.000
    H2872    H        0.42600    0.10680    0.54440    1.000
    H2873    H        0.43590    0.07490    0.53340    1.000
    H2874    H        0.18600    0.58890    0.12640    1.000
    H2875    H        0.18960    0.53560    0.09760    1.000
    H2876    H        0.28300    0.50460    0.02950    1.000
    H2877    H        0.32940    0.54000    0.01510    1.000
    C1015    C        0.30570    0.54480    0.08170    1.000
    H2878    H        0.31520    0.52660    0.08890    1.000
    H2879    H        0.30680    0.55960    0.09750    1.000
    N170     N        0.39391    0.58458    0.02385    1.000
    C1016    C        0.27300    0.53840    0.07420    1.000
    H2880    H        0.26020    0.55120    0.08610    1.000
    H2881    H        0.26830    0.51780    0.07910    1.000
    C1017    C        0.35680    0.63140    0.09470    1.000
    H2882    H        0.36660    0.63900    0.07690    1.000
    H2883    H        0.33630    0.62650    0.08940    1.000
    H2884    H        0.41340    0.62100    0.09620    1.000
    C1018    C        0.37720    0.60990    0.01460    1.000
    H2885    H        0.35650    0.60420    0.01140    1.000
    H2886    H        0.37780    0.62500    0.03010    1.000
    C1019    C        0.39380    0.56240    0.99950    1.000
    H2887    H        0.40510    0.54490    0.00550    1.000
    H2888    H        0.37340    0.55620    0.99530    1.000
    C1020    C        0.42450    0.59260    0.02800    1.000
    H2889    H        0.42600    0.60680    0.04440    1.000
    H2890    H        0.43590    0.57490    0.03340    1.000
    H2891    H        0.68600    0.08890    0.12640    1.000
    H2892    H        0.68960    0.03560    0.09760    1.000
    H2893    H        0.78300    0.00460    0.02950    1.000
    H2894    H        0.82940    0.04000    0.01510    1.000
    C1021    C        0.80570    0.04480    0.08170    1.000
    H2895    H        0.81520    0.02660    0.08890    1.000
    H2896    H        0.80680    0.05960    0.09750    1.000
    N171     N        0.89391    0.08458    0.02385    1.000
    C1022    C        0.77300    0.03840    0.07420    1.000
    H2897    H        0.76020    0.05120    0.08610    1.000
    H2898    H        0.76830    0.01780    0.07910    1.000
    C1023    C        0.85680    0.13140    0.09470    1.000
    H2899    H        0.86660    0.13900    0.07690    1.000
    H2900    H        0.83630    0.12650    0.08940    1.000
    H2901    H        0.91340    0.12100    0.09620    1.000
    C1024    C        0.87720    0.10990    0.01460    1.000
    H2902    H        0.85650    0.10420    0.01140    1.000
    H2903    H        0.87780    0.12500    0.03010    1.000
    C1025    C        0.89380    0.06240    0.99950    1.000
    H2904    H        0.90510    0.04490    0.00550    1.000
    H2905    H        0.87340    0.05620    0.99530    1.000
    C1026    C        0.92450    0.09260    0.02800    1.000
    H2906    H        0.92600    0.10680    0.04440    1.000
    H2907    H        0.93590    0.07490    0.03340    1.000
    H2908    H        0.68600    0.58890    0.62640    1.000
    H2909    H        0.68960    0.53560    0.59760    1.000
    H2910    H        0.78300    0.50460    0.52950    1.000
    H2911    H        0.82940    0.54000    0.51510    1.000
    C1027    C        0.80570    0.54480    0.58170    1.000
    H2912    H        0.81520    0.52660    0.58890    1.000
    H2913    H        0.80680    0.55960    0.59750    1.000
    N172     N        0.89391    0.58458    0.52385    1.000
    C1028    C        0.77300    0.53840    0.57420    1.000
    H2914    H        0.76020    0.55120    0.58610    1.000
    H2915    H        0.76830    0.51780    0.57910    1.000
    C1029    C        0.85680    0.63140    0.59470    1.000
    H2916    H        0.86660    0.63900    0.57690    1.000
    H2917    H        0.83630    0.62650    0.58940    1.000
    H2918    H        0.91340    0.62100    0.59620    1.000
    C1030    C        0.87720    0.60990    0.51460    1.000
    H2919    H        0.85650    0.60420    0.51140    1.000
    H2920    H        0.87780    0.62500    0.53010    1.000
    C1031    C        0.89380    0.56240    0.49950    1.000
    H2921    H        0.90510    0.54490    0.50550    1.000
    H2922    H        0.87340    0.55620    0.49530    1.000
    C1032    C        0.92450    0.59260    0.52800    1.000
    H2923    H        0.92600    0.60680    0.54440    1.000
    H2924    H        0.93590    0.57490    0.53340    1.000
    H2925    H        0.56400    0.58890    0.62360    1.000
    H2926    H        0.56040    0.53560    0.65240    1.000
    H2927    H        0.46700    0.50460    0.72050    1.000
    H2928    H        0.42060    0.54000    0.73490    1.000
    C1033    C        0.44430    0.54480    0.66830    1.000
    H2929    H        0.43480    0.52660    0.66110    1.000
    H2930    H        0.44320    0.55960    0.65250    1.000
    N173     N        0.35609    0.58458    0.72615    1.000
    C1034    C        0.47700    0.53840    0.67580    1.000
    H2931    H        0.48980    0.55120    0.66390    1.000
    H2932    H        0.48170    0.51780    0.67090    1.000
    C1035    C        0.39320    0.63140    0.65530    1.000
    H2933    H        0.38340    0.63900    0.67310    1.000
    H2934    H        0.41370    0.62650    0.66060    1.000
    H2935    H        0.33660    0.62100    0.65380    1.000
    C1036    C        0.37280    0.60990    0.73540    1.000
    H2936    H        0.39350    0.60420    0.73860    1.000
    H2937    H        0.37220    0.62500    0.71990    1.000
    C1037    C        0.35620    0.56240    0.75050    1.000
    H2938    H        0.34490    0.54490    0.74450    1.000
    H2939    H        0.37660    0.55620    0.75470    1.000
    C1038    C        0.32550    0.59260    0.72200    1.000
    H2940    H        0.32400    0.60680    0.70560    1.000
    H2941    H        0.31410    0.57490    0.71660    1.000
    H2942    H        0.56400    0.08890    0.12360    1.000
    H2943    H        0.56040    0.03560    0.15240    1.000
    H2944    H        0.46700    0.00460    0.22050    1.000
    H2945    H        0.42060    0.04000    0.23490    1.000
    C1039    C        0.44430    0.04480    0.16830    1.000
    H2946    H        0.43480    0.02660    0.16110    1.000
    H2947    H        0.44320    0.05960    0.15250    1.000
    N174     N        0.35609    0.08458    0.22615    1.000
    C1040    C        0.47700    0.03840    0.17580    1.000
    H2948    H        0.48980    0.05120    0.16390    1.000
    H2949    H        0.48170    0.01780    0.17090    1.000
    C1041    C        0.39320    0.13140    0.15530    1.000
    H2950    H        0.38340    0.13900    0.17310    1.000
    H2951    H        0.41370    0.12650    0.16060    1.000
    H2952    H        0.33660    0.12100    0.15380    1.000
    C1042    C        0.37280    0.10990    0.23540    1.000
    H2953    H        0.39350    0.10420    0.23860    1.000
    H2954    H        0.37220    0.12500    0.21990    1.000
    C1043    C        0.35620    0.06240    0.25050    1.000
    H2955    H        0.34490    0.04490    0.24450    1.000
    H2956    H        0.37660    0.05620    0.25470    1.000
    C1044    C        0.32550    0.09260    0.22200    1.000
    H2957    H        0.32400    0.10680    0.20560    1.000
    H2958    H        0.31410    0.07490    0.21660    1.000
    H2959    H        0.06400    0.58890    0.12360    1.000
    H2960    H        0.06040    0.53560    0.15240    1.000
    H2961    H        0.96700    0.50460    0.22050    1.000
    H2962    H        0.92060    0.54000    0.23490    1.000
    C1045    C        0.94430    0.54480    0.16830    1.000
    H2963    H        0.93480    0.52660    0.16110    1.000
    H2964    H        0.94320    0.55960    0.15250    1.000
    N175     N        0.85609    0.58458    0.22615    1.000
    C1046    C        0.97700    0.53840    0.17580    1.000
    H2965    H        0.98980    0.55120    0.16390    1.000
    H2966    H        0.98170    0.51780    0.17090    1.000
    C1047    C        0.89320    0.63140    0.15530    1.000
    H2967    H        0.88340    0.63900    0.17310    1.000
    H2968    H        0.91370    0.62650    0.16060    1.000
    H2969    H        0.83660    0.62100    0.15380    1.000
    C1048    C        0.87280    0.60990    0.23540    1.000
    H2970    H        0.89350    0.60420    0.23860    1.000
    H2971    H        0.87220    0.62500    0.21990    1.000
    C1049    C        0.85620    0.56240    0.25050    1.000
    H2972    H        0.84490    0.54490    0.24450    1.000
    H2973    H        0.87660    0.55620    0.25470    1.000
    C1050    C        0.82550    0.59260    0.22200    1.000
    H2974    H        0.82400    0.60680    0.20560    1.000
    H2975    H        0.81410    0.57490    0.21660    1.000
    H2976    H        0.06400    0.08890    0.62360    1.000
    H2977    H        0.06040    0.03560    0.65240    1.000
    H2978    H        0.96700    0.00460    0.72050    1.000
    H2979    H        0.92060    0.04000    0.73490    1.000
    C1051    C        0.94430    0.04480    0.66830    1.000
    H2980    H        0.93480    0.02660    0.66110    1.000
    H2981    H        0.94320    0.05960    0.65250    1.000
    N176     N        0.85609    0.08458    0.72615    1.000
    C1052    C        0.97700    0.03840    0.67580    1.000
    H2982    H        0.98980    0.05120    0.66390    1.000
    H2983    H        0.98170    0.01780    0.67090    1.000
    C1053    C        0.89320    0.13140    0.65530    1.000
    H2984    H        0.88340    0.13900    0.67310    1.000
    H2985    H        0.91370    0.12650    0.66060    1.000
    H2986    H        0.83660    0.12100    0.65380    1.000
    C1054    C        0.87280    0.10990    0.73540    1.000
    H2987    H        0.89350    0.10420    0.73860    1.000
    H2988    H        0.87220    0.12500    0.71990    1.000
    C1055    C        0.85620    0.06240    0.75050    1.000
    H2989    H        0.84490    0.04490    0.74450    1.000
    H2990    H        0.87660    0.05620    0.75470    1.000
    C1056    C        0.82550    0.09260    0.72200    1.000
    H2991    H        0.82400    0.10680    0.70560    1.000
    H2992    H        0.81410    0.07490    0.71660    1.000
    H2993    H        0.16110    0.12360    0.68600    1.000
    H2994    H        0.21440    0.15240    0.68960    1.000
    H2995    H        0.24540    0.22050    0.78300    1.000
    H2996    H        0.21000    0.23490    0.82940    1.000
    C1057    C        0.20520    0.16830    0.80570    1.000
    H2997    H        0.22340    0.16110    0.81520    1.000
    H2998    H        0.19040    0.15250    0.80680    1.000
    N177     N        0.16542    0.22615    0.89391    1.000
    C1058    C        0.21160    0.17580    0.77300    1.000
    H2999    H        0.19880    0.16390    0.76020    1.000
    H3000    H        0.23220    0.17090    0.76830    1.000
    C1059    C        0.11860    0.15530    0.85680    1.000
    H3001    H        0.11100    0.17310    0.86660    1.000
    H3002    H        0.12350    0.16060    0.83630    1.000
    H3003    H        0.12900    0.15380    0.91340    1.000
    C1060    C        0.14010    0.23540    0.87720    1.000
    H3004    H        0.14580    0.23860    0.85650    1.000
    H3005    H        0.12500    0.21990    0.87780    1.000
    C1061    C        0.18760    0.25050    0.89380    1.000
    H3006    H        0.20510    0.24450    0.90510    1.000
    H3007    H        0.19380    0.25470    0.87340    1.000
    C1062    C        0.15740    0.22200    0.92450    1.000
    H3008    H        0.14320    0.20560    0.92600    1.000
    H3009    H        0.17510    0.21660    0.93590    1.000
    H3010    H        0.16110    0.62360    0.18600    1.000
    H3011    H        0.21440    0.65240    0.18960    1.000
    H3012    H        0.24540    0.72050    0.28300    1.000
    H3013    H        0.21000    0.73490    0.32940    1.000
    C1063    C        0.20520    0.66830    0.30570    1.000
    H3014    H        0.22340    0.66110    0.31520    1.000
    H3015    H        0.19040    0.65250    0.30680    1.000
    N178     N        0.16542    0.72615    0.39391    1.000
    C1064    C        0.21160    0.67580    0.27300    1.000
    H3016    H        0.19880    0.66390    0.26020    1.000
    H3017    H        0.23220    0.67090    0.26830    1.000
    C1065    C        0.11860    0.65530    0.35680    1.000
    H3018    H        0.11100    0.67310    0.36660    1.000
    H3019    H        0.12350    0.66060    0.33630    1.000
    H3020    H        0.12900    0.65380    0.41340    1.000
    C1066    C        0.14010    0.73540    0.37720    1.000
    H3021    H        0.14580    0.73860    0.35650    1.000
    H3022    H        0.12500    0.71990    0.37780    1.000
    C1067    C        0.18760    0.75050    0.39380    1.000
    H3023    H        0.20510    0.74450    0.40510    1.000
    H3024    H        0.19380    0.75470    0.37340    1.000
    C1068    C        0.15740    0.72200    0.42450    1.000
    H3025    H        0.14320    0.70560    0.42600    1.000
    H3026    H        0.17510    0.71660    0.43590    1.000
    H3027    H        0.66110    0.12360    0.18600    1.000
    H3028    H        0.71440    0.15240    0.18960    1.000
    H3029    H        0.74540    0.22050    0.28300    1.000
    H3030    H        0.71000    0.23490    0.32940    1.000
    C1069    C        0.70520    0.16830    0.30570    1.000
    H3031    H        0.72340    0.16110    0.31520    1.000
    H3032    H        0.69040    0.15250    0.30680    1.000
    N179     N        0.66542    0.22615    0.39391    1.000
    C1070    C        0.71160    0.17580    0.27300    1.000
    H3033    H        0.69880    0.16390    0.26020    1.000
    H3034    H        0.73220    0.17090    0.26830    1.000
    C1071    C        0.61860    0.15530    0.35680    1.000
    H3035    H        0.61100    0.17310    0.36660    1.000
    H3036    H        0.62350    0.16060    0.33630    1.000
    H3037    H        0.62900    0.15380    0.41340    1.000
    C1072    C        0.64010    0.23540    0.37720    1.000
    H3038    H        0.64580    0.23860    0.35650    1.000
    H3039    H        0.62500    0.21990    0.37780    1.000
    C1073    C        0.68760    0.25050    0.39380    1.000
    H3040    H        0.70510    0.24450    0.40510    1.000
    H3041    H        0.69380    0.25470    0.37340    1.000
    C1074    C        0.65740    0.22200    0.42450    1.000
    H3042    H        0.64320    0.20560    0.42600    1.000
    H3043    H        0.67510    0.21660    0.43590    1.000
    H3044    H        0.66110    0.62360    0.68600    1.000
    H3045    H        0.71440    0.65240    0.68960    1.000
    H3046    H        0.74540    0.72050    0.78300    1.000
    H3047    H        0.71000    0.73490    0.82940    1.000
    C1075    C        0.70520    0.66830    0.80570    1.000
    H3048    H        0.72340    0.66110    0.81520    1.000
    H3049    H        0.69040    0.65250    0.80680    1.000
    N180     N        0.66542    0.72615    0.89391    1.000
    C1076    C        0.71160    0.67580    0.77300    1.000
    H3050    H        0.69880    0.66390    0.76020    1.000
    H3051    H        0.73220    0.67090    0.76830    1.000
    C1077    C        0.61860    0.65530    0.85680    1.000
    H3052    H        0.61100    0.67310    0.86660    1.000
    H3053    H        0.62350    0.66060    0.83630    1.000
    H3054    H        0.62900    0.65380    0.91340    1.000
    C1078    C        0.64010    0.73540    0.87720    1.000
    H3055    H        0.64580    0.73860    0.85650    1.000
    H3056    H        0.62500    0.71990    0.87780    1.000
    C1079    C        0.68760    0.75050    0.89380    1.000
    H3057    H        0.70510    0.74450    0.90510    1.000
    H3058    H        0.69380    0.75470    0.87340    1.000
    C1080    C        0.65740    0.72200    0.92450    1.000
    H3059    H        0.64320    0.70560    0.92600    1.000
    H3060    H        0.67510    0.71660    0.93590    1.000
    H3061    H        0.66110    0.12640    0.06400    1.000
    H3062    H        0.71440    0.09760    0.06040    1.000
    H3063    H        0.74540    0.02950    0.96700    1.000
    H3064    H        0.71000    0.01510    0.92060    1.000
    C1081    C        0.70520    0.08170    0.94430    1.000
    H3065    H        0.72340    0.08890    0.93480    1.000
    H3066    H        0.69040    0.09750    0.94320    1.000
    N181     N        0.66542    0.02385    0.85609    1.000
    C1082    C        0.71160    0.07420    0.97700    1.000
    H3067    H        0.69880    0.08610    0.98980    1.000
    H3068    H        0.73220    0.07910    0.98170    1.000
    C1083    C        0.61860    0.09470    0.89320    1.000
    H3069    H        0.61100    0.07690    0.88340    1.000
    H3070    H        0.62350    0.08940    0.91370    1.000
    H3071    H        0.62900    0.09620    0.83660    1.000
    C1084    C        0.64010    0.01460    0.87280    1.000
    H3072    H        0.64580    0.01140    0.89350    1.000
    H3073    H        0.62500    0.03010    0.87220    1.000
    C1085    C        0.68760    0.99950    0.85620    1.000
    H3074    H        0.70510    0.00550    0.84490    1.000
    H3075    H        0.69380    0.99530    0.87660    1.000
    C1086    C        0.65740    0.02800    0.82550    1.000
    H3076    H        0.64320    0.04440    0.82400    1.000
    H3077    H        0.67510    0.03340    0.81410    1.000
    H3078    H        0.66110    0.62640    0.56400    1.000
    H3079    H        0.71440    0.59760    0.56040    1.000
    H3080    H        0.74540    0.52950    0.46700    1.000
    H3081    H        0.71000    0.51510    0.42060    1.000
    C1087    C        0.70520    0.58170    0.44430    1.000
    H3082    H        0.72340    0.58890    0.43480    1.000
    H3083    H        0.69040    0.59750    0.44320    1.000
    N182     N        0.66542    0.52385    0.35609    1.000
    C1088    C        0.71160    0.57420    0.47700    1.000
    H3084    H        0.69880    0.58610    0.48980    1.000
    H3085    H        0.73220    0.57910    0.48170    1.000
    C1089    C        0.61860    0.59470    0.39320    1.000
    H3086    H        0.61100    0.57690    0.38340    1.000
    H3087    H        0.62350    0.58940    0.41370    1.000
    H3088    H        0.62900    0.59620    0.33660    1.000
    C1090    C        0.64010    0.51460    0.37280    1.000
    H3089    H        0.64580    0.51140    0.39350    1.000
    H3090    H        0.62500    0.53010    0.37220    1.000
    C1091    C        0.68760    0.49950    0.35620    1.000
    H3091    H        0.70510    0.50550    0.34490    1.000
    H3092    H        0.69380    0.49530    0.37660    1.000
    C1092    C        0.65740    0.52800    0.32550    1.000
    H3093    H        0.64320    0.54440    0.32400    1.000
    H3094    H        0.67510    0.53340    0.31410    1.000
    H3095    H        0.16110    0.12640    0.56400    1.000
    H3096    H        0.21440    0.09760    0.56040    1.000
    H3097    H        0.24540    0.02950    0.46700    1.000
    H3098    H        0.21000    0.01510    0.42060    1.000
    C1093    C        0.20520    0.08170    0.44430    1.000
    H3099    H        0.22340    0.08890    0.43480    1.000
    H3100    H        0.19040    0.09750    0.44320    1.000
    N183     N        0.16542    0.02385    0.35609    1.000
    C1094    C        0.21160    0.07420    0.47700    1.000
    H3101    H        0.19880    0.08610    0.48980    1.000
    H3102    H        0.23220    0.07910    0.48170    1.000
    C1095    C        0.11860    0.09470    0.39320    1.000
    H3103    H        0.11100    0.07690    0.38340    1.000
    H3104    H        0.12350    0.08940    0.41370    1.000
    H3105    H        0.12900    0.09620    0.33660    1.000
    C1096    C        0.14010    0.01460    0.37280    1.000
    H3106    H        0.14580    0.01140    0.39350    1.000
    H3107    H        0.12500    0.03010    0.37220    1.000
    C1097    C        0.18760    0.99950    0.35620    1.000
    H3108    H        0.20510    0.00550    0.34490    1.000
    H3109    H        0.19380    0.99530    0.37660    1.000
    C1098    C        0.15740    0.02800    0.32550    1.000
    H3110    H        0.14320    0.04440    0.32400    1.000
    H3111    H        0.17510    0.03340    0.31410    1.000
    H3112    H        0.16110    0.62640    0.06400    1.000
    H3113    H        0.21440    0.59760    0.06040    1.000
    H3114    H        0.24540    0.52950    0.96700    1.000
    H3115    H        0.21000    0.51510    0.92060    1.000
    C1099    C        0.20520    0.58170    0.94430    1.000
    H3116    H        0.22340    0.58890    0.93480    1.000
    H3117    H        0.19040    0.59750    0.94320    1.000
    N184     N        0.16542    0.52385    0.85609    1.000
    C1100    C        0.21160    0.57420    0.97700    1.000
    H3118    H        0.19880    0.58610    0.98980    1.000
    H3119    H        0.23220    0.57910    0.98170    1.000
    C1101    C        0.11860    0.59470    0.89320    1.000
    H3120    H        0.11100    0.57690    0.88340    1.000
    H3121    H        0.12350    0.58940    0.91370    1.000
    H3122    H        0.12900    0.59620    0.83660    1.000
    C1102    C        0.14010    0.51460    0.87280    1.000
    H3123    H        0.14580    0.51140    0.89350    1.000
    H3124    H        0.12500    0.53010    0.87220    1.000
    C1103    C        0.18760    0.49950    0.85620    1.000
    H3125    H        0.20510    0.50550    0.84490    1.000
    H3126    H        0.19380    0.49530    0.87660    1.000
    C1104    C        0.15740    0.52800    0.82550    1.000
    H3127    H        0.14320    0.54440    0.82400    1.000
    H3128    H        0.17510    0.53340    0.81410    1.000
    H3129    H        0.58890    0.62360    0.56400    1.000
    H3130    H        0.53560    0.65240    0.56040    1.000
    H3131    H        0.50460    0.72050    0.46700    1.000
    H3132    H        0.54000    0.73490    0.42060    1.000
    C1105    C        0.54480    0.66830    0.44430    1.000
    H3133    H        0.52660    0.66110    0.43480    1.000
    H3134    H        0.55960    0.65250    0.44320    1.000
    N185     N        0.58458    0.72615    0.35609    1.000
    C1106    C        0.53840    0.67580    0.47700    1.000
    H3135    H        0.55120    0.66390    0.48980    1.000
    H3136    H        0.51780    0.67090    0.48170    1.000
    C1107    C        0.63140    0.65530    0.39320    1.000
    H3137    H        0.63900    0.67310    0.38340    1.000
    H3138    H        0.62650    0.66060    0.41370    1.000
    H3139    H        0.62100    0.65380    0.33660    1.000
    C1108    C        0.60990    0.73540    0.37280    1.000
    H3140    H        0.60420    0.73860    0.39350    1.000
    H3141    H        0.62500    0.71990    0.37220    1.000
    C1109    C        0.56240    0.75050    0.35620    1.000
    H3142    H        0.54490    0.74450    0.34490    1.000
    H3143    H        0.55620    0.75470    0.37660    1.000
    C1110    C        0.59260    0.72200    0.32550    1.000
    H3144    H        0.60680    0.70560    0.32400    1.000
    H3145    H        0.57490    0.71660    0.31410    1.000
    H3146    H        0.58890    0.12360    0.06400    1.000
    H3147    H        0.53560    0.15240    0.06040    1.000
    H3148    H        0.50460    0.22050    0.96700    1.000
    H3149    H        0.54000    0.23490    0.92060    1.000
    C1111    C        0.54480    0.16830    0.94430    1.000
    H3150    H        0.52660    0.16110    0.93480    1.000
    H3151    H        0.55960    0.15250    0.94320    1.000
    N186     N        0.58458    0.22615    0.85609    1.000
    C1112    C        0.53840    0.17580    0.97700    1.000
    H3152    H        0.55120    0.16390    0.98980    1.000
    H3153    H        0.51780    0.17090    0.98170    1.000
    C1113    C        0.63140    0.15530    0.89320    1.000
    H3154    H        0.63900    0.17310    0.88340    1.000
    H3155    H        0.62650    0.16060    0.91370    1.000
    H3156    H        0.62100    0.15380    0.83660    1.000
    C1114    C        0.60990    0.23540    0.87280    1.000
    H3157    H        0.60420    0.23860    0.89350    1.000
    H3158    H        0.62500    0.21990    0.87220    1.000
    C1115    C        0.56240    0.25050    0.85620    1.000
    H3159    H        0.54490    0.24450    0.84490    1.000
    H3160    H        0.55620    0.25470    0.87660    1.000
    C1116    C        0.59260    0.22200    0.82550    1.000
    H3161    H        0.60680    0.20560    0.82400    1.000
    H3162    H        0.57490    0.21660    0.81410    1.000
    H3163    H        0.08890    0.62360    0.06400    1.000
    H3164    H        0.03560    0.65240    0.06040    1.000
    H3165    H        0.00460    0.72050    0.96700    1.000
    H3166    H        0.04000    0.73490    0.92060    1.000
    C1117    C        0.04480    0.66830    0.94430    1.000
    H3167    H        0.02660    0.66110    0.93480    1.000
    H3168    H        0.05960    0.65250    0.94320    1.000
    N187     N        0.08458    0.72615    0.85609    1.000
    C1118    C        0.03840    0.67580    0.97700    1.000
    H3169    H        0.05120    0.66390    0.98980    1.000
    H3170    H        0.01780    0.67090    0.98170    1.000
    C1119    C        0.13140    0.65530    0.89320    1.000
    H3171    H        0.13900    0.67310    0.88340    1.000
    H3172    H        0.12650    0.66060    0.91370    1.000
    H3173    H        0.12100    0.65380    0.83660    1.000
    C1120    C        0.10990    0.73540    0.87280    1.000
    H3174    H        0.10420    0.73860    0.89350    1.000
    H3175    H        0.12500    0.71990    0.87220    1.000
    C1121    C        0.06240    0.75050    0.85620    1.000
    H3176    H        0.04490    0.74450    0.84490    1.000
    H3177    H        0.05620    0.75470    0.87660    1.000
    C1122    C        0.09260    0.72200    0.82550    1.000
    H3178    H        0.10680    0.70560    0.82400    1.000
    H3179    H        0.07490    0.71660    0.81410    1.000
    H3180    H        0.08890    0.12360    0.56400    1.000
    H3181    H        0.03560    0.15240    0.56040    1.000
    H3182    H        0.00460    0.22050    0.46700    1.000
    H3183    H        0.04000    0.23490    0.42060    1.000
    C1123    C        0.04480    0.16830    0.44430    1.000
    H3184    H        0.02660    0.16110    0.43480    1.000
    H3185    H        0.05960    0.15250    0.44320    1.000
    N188     N        0.08458    0.22615    0.35609    1.000
    C1124    C        0.03840    0.17580    0.47700    1.000
    H3186    H        0.05120    0.16390    0.48980    1.000
    H3187    H        0.01780    0.17090    0.48170    1.000
    C1125    C        0.13140    0.15530    0.39320    1.000
    H3188    H        0.13900    0.17310    0.38340    1.000
    H3189    H        0.12650    0.16060    0.41370    1.000
    H3190    H        0.12100    0.15380    0.33660    1.000
    C1126    C        0.10990    0.23540    0.37280    1.000
    H3191    H        0.10420    0.23860    0.39350    1.000
    H3192    H        0.12500    0.21990    0.37220    1.000
    C1127    C        0.06240    0.25050    0.35620    1.000
    H3193    H        0.04490    0.24450    0.34490    1.000
    H3194    H        0.05620    0.25470    0.37660    1.000
    C1128    C        0.09260    0.22200    0.32550    1.000
    H3195    H        0.10680    0.20560    0.32400    1.000
    H3196    H        0.07490    0.21660    0.31410    1.000
    H3197    H        0.08890    0.62640    0.18600    1.000
    H3198    H        0.03560    0.59760    0.18960    1.000
    H3199    H        0.00460    0.52950    0.28300    1.000
    H3200    H        0.04000    0.51510    0.32940    1.000
    C1129    C        0.04480    0.58170    0.30570    1.000
    H3201    H        0.02660    0.58890    0.31520    1.000
    H3202    H        0.05960    0.59750    0.30680    1.000
    N189     N        0.08458    0.52385    0.39391    1.000
    C1130    C        0.03840    0.57420    0.27300    1.000
    H3203    H        0.05120    0.58610    0.26020    1.000
    H3204    H        0.01780    0.57910    0.26830    1.000
    C1131    C        0.13140    0.59470    0.35680    1.000
    H3205    H        0.13900    0.57690    0.36660    1.000
    H3206    H        0.12650    0.58940    0.33630    1.000
    H3207    H        0.12100    0.59620    0.41340    1.000
    C1132    C        0.10990    0.51460    0.37720    1.000
    H3208    H        0.10420    0.51140    0.35650    1.000
    H3209    H        0.12500    0.53010    0.37780    1.000
    C1133    C        0.06240    0.49950    0.39380    1.000
    H3210    H        0.04490    0.50550    0.40510    1.000
    H3211    H        0.05620    0.49530    0.37340    1.000
    C1134    C        0.09260    0.52800    0.42450    1.000
    H3212    H        0.10680    0.54440    0.42600    1.000
    H3213    H        0.07490    0.53340    0.43590    1.000
    H3214    H        0.08890    0.12640    0.68600    1.000
    H3215    H        0.03560    0.09760    0.68960    1.000
    H3216    H        0.00460    0.02950    0.78300    1.000
    H3217    H        0.04000    0.01510    0.82940    1.000
    C1135    C        0.04480    0.08170    0.80570    1.000
    H3218    H        0.02660    0.08890    0.81520    1.000
    H3219    H        0.05960    0.09750    0.80680    1.000
    N190     N        0.08458    0.02385    0.89391    1.000
    C1136    C        0.03840    0.07420    0.77300    1.000
    H3220    H        0.05120    0.08610    0.76020    1.000
    H3221    H        0.01780    0.07910    0.76830    1.000
    C1137    C        0.13140    0.09470    0.85680    1.000
    H3222    H        0.13900    0.07690    0.86660    1.000
    H3223    H        0.12650    0.08940    0.83630    1.000
    H3224    H        0.12100    0.09620    0.91340    1.000
    C1138    C        0.10990    0.01460    0.87720    1.000
    H3225    H        0.10420    0.01140    0.85650    1.000
    H3226    H        0.12500    0.03010    0.87780    1.000
    C1139    C        0.06240    0.99950    0.89380    1.000
    H3227    H        0.04490    0.00550    0.90510    1.000
    H3228    H        0.05620    0.99530    0.87340    1.000
    C1140    C        0.09260    0.02800    0.92450    1.000
    H3229    H        0.10680    0.04440    0.92600    1.000
    H3230    H        0.07490    0.03340    0.93590    1.000
    H3231    H        0.58890    0.62640    0.68600    1.000
    H3232    H        0.53560    0.59760    0.68960    1.000
    H3233    H        0.50460    0.52950    0.78300    1.000
    H3234    H        0.54000    0.51510    0.82940    1.000
    C1141    C        0.54480    0.58170    0.80570    1.000
    H3235    H        0.52660    0.58890    0.81520    1.000
    H3236    H        0.55960    0.59750    0.80680    1.000
    N191     N        0.58458    0.52385    0.89391    1.000
    C1142    C        0.53840    0.57420    0.77300    1.000
    H3237    H        0.55120    0.58610    0.76020    1.000
    H3238    H        0.51780    0.57910    0.76830    1.000
    C1143    C        0.63140    0.59470    0.85680    1.000
    H3239    H        0.63900    0.57690    0.86660    1.000
    H3240    H        0.62650    0.58940    0.83630    1.000
    H3241    H        0.62100    0.59620    0.91340    1.000
    C1144    C        0.60990    0.51460    0.87720    1.000
    H3242    H        0.60420    0.51140    0.85650    1.000
    H3243    H        0.62500    0.53010    0.87780    1.000
    C1145    C        0.56240    0.49950    0.89380    1.000
    H3244    H        0.54490    0.50550    0.90510    1.000
    H3245    H        0.55620    0.49530    0.87340    1.000
    C1146    C        0.59260    0.52800    0.92450    1.000
    H3246    H        0.60680    0.54440    0.92600    1.000
    H3247    H        0.57490    0.53340    0.93590    1.000
    H3248    H        0.58890    0.12640    0.18600    1.000
    H3249    H        0.53560    0.09760    0.18960    1.000
    H3250    H        0.50460    0.02950    0.28300    1.000
    H3251    H        0.54000    0.01510    0.32940    1.000
    C1147    C        0.54480    0.08170    0.30570    1.000
    H3252    H        0.52660    0.08890    0.31520    1.000
    H3253    H        0.55960    0.09750    0.30680    1.000
    N192     N        0.58458    0.02385    0.39391    1.000
    C1148    C        0.53840    0.07420    0.27300    1.000
    H3254    H        0.55120    0.08610    0.26020    1.000
    H3255    H        0.51780    0.07910    0.26830    1.000
    C1149    C        0.63140    0.09470    0.35680    1.000
    H3256    H        0.63900    0.07690    0.36660    1.000
    H3257    H        0.62650    0.08940    0.33630    1.000
    H3258    H        0.62100    0.09620    0.41340    1.000
    C1150    C        0.60990    0.01460    0.37720    1.000
    H3259    H        0.60420    0.01140    0.35650    1.000
    H3260    H        0.62500    0.03010    0.37780    1.000
    C1151    C        0.56240    0.99950    0.39380    1.000
    H3261    H        0.54490    0.00550    0.40510    1.000
    H3262    H        0.55620    0.99530    0.37340    1.000
    C1152    C        0.59260    0.02800    0.42450    1.000
    H3263    H        0.60680    0.04440    0.42600    1.000
    H3264    H        0.57490    0.03340    0.43590    1.000
    Ag1      Ag       0.12500    0.62500    0.12500    1.000
    Ag2      Ag       0.12500    0.12500    0.62500    1.000
    Ag3      Ag       0.62500    0.62500    0.62500    1.000
    Ag4      Ag       0.62500    0.12500    0.12500    1.000
    Ag5      Ag       0.37500    0.37500    0.37500    1.000
    Ag6      Ag       0.37500    0.87500    0.87500    1.000
    Ag7      Ag       0.87500    0.37500    0.87500    1.000
    Ag8      Ag       0.87500    0.87500    0.37500    1.000
    N193     N        0.15480    0.59520    0.09520    1.000
    Ag9      Ag       0.21760    0.53240    0.03240    1.000
    N194     N        0.18750    0.56250    0.06250    1.000
    N195     N        0.59520    0.65480    0.59520    1.000
    Ag10     Ag       0.53240    0.71760    0.53240    1.000
    N196     N        0.56250    0.68750    0.56250    1.000
    N197     N        0.09520    0.09520    0.65480    1.000
    Ag11     Ag       0.03240    0.03240    0.71760    1.000
    N198     N        0.06250    0.06250    0.68750    1.000
    N199     N        0.65480    0.15480    0.15480    1.000
    Ag12     Ag       0.71760    0.21760    0.21760    1.000
    N200     N        0.68750    0.18750    0.18750    1.000
    N201     N        0.65480    0.65480    0.65480    1.000
    Ag13     Ag       0.71760    0.71760    0.71760    1.000
    N202     N        0.68750    0.68750    0.68750    1.000
    N203     N        0.09520    0.15480    0.59520    1.000
    Ag14     Ag       0.03240    0.21760    0.53240    1.000
    N204     N        0.06250    0.18750    0.56250    1.000
    N205     N        0.59520    0.59520    0.65480    1.000
    Ag15     Ag       0.53240    0.53240    0.71760    1.000
    N206     N        0.56250    0.56250    0.68750    1.000
    N207     N        0.65480    0.09520    0.09520    1.000
    Ag16     Ag       0.71760    0.03240    0.03240    1.000
    N208     N        0.68750    0.06250    0.06250    1.000
    N209     N        0.15480    0.65480    0.15480    1.000
    Ag17     Ag       0.21760    0.71760    0.21760    1.000
    N210     N        0.18750    0.68750    0.18750    1.000
    N211     N        0.59520    0.09520    0.15480    1.000
    Ag18     Ag       0.53240    0.03240    0.21760    1.000
    N212     N        0.56250    0.06250    0.18750    1.000
    N213     N        0.65480    0.59520    0.59520    1.000
    Ag19     Ag       0.71760    0.53240    0.53240    1.000
    N214     N        0.68750    0.56250    0.56250    1.000
    N215     N        0.09520    0.65480    0.09520    1.000
    Ag20     Ag       0.03240    0.71760    0.03240    1.000
    N216     N        0.06250    0.68750    0.06250    1.000
    N217     N        0.15480    0.15480    0.65480    1.000
    Ag21     Ag       0.21760    0.21760    0.71760    1.000
    N218     N        0.18750    0.18750    0.68750    1.000
    N219     N        0.34520    0.40480    0.40480    1.000
    Ag22     Ag       0.28240    0.46760    0.46760    1.000
    N220     N        0.31250    0.43750    0.43750    1.000
    N221     N        0.40480    0.84520    0.90480    1.000
    Ag23     Ag       0.46760    0.78240    0.96760    1.000
    N222     N        0.43750    0.81250    0.93750    1.000
    N223     N        0.84520    0.34520    0.84520    1.000
    Ag24     Ag       0.78240    0.28240    0.78240    1.000
    N224     N        0.81250    0.31250    0.81250    1.000
    N225     N        0.90480    0.90480    0.34520    1.000
    Ag25     Ag       0.96760    0.96760    0.28240    1.000
    N226     N        0.93750    0.93750    0.31250    1.000
    N227     N        0.90480    0.34520    0.90480    1.000
    Ag26     Ag       0.96760    0.28240    0.96760    1.000
    N228     N        0.93750    0.31250    0.93750    1.000
    N229     N        0.34520    0.84520    0.84520    1.000
    Ag27     Ag       0.28240    0.78240    0.78240    1.000
    N230     N        0.31250    0.81250    0.81250    1.000
    N231     N        0.34520    0.34520    0.34520    1.000
    Ag28     Ag       0.28240    0.28240    0.28240    1.000
    N232     N        0.31250    0.31250    0.31250    1.000
    N233     N        0.84520    0.90480    0.40480    1.000
    Ag29     Ag       0.78240    0.96760    0.46760    1.000
    N234     N        0.81250    0.93750    0.43750    1.000
    N235     N        0.40480    0.40480    0.34520    1.000
    Ag30     Ag       0.46760    0.46760    0.28240    1.000
    N236     N        0.43750    0.43750    0.31250    1.000
    N237     N        0.84520    0.84520    0.34520    1.000
    Ag31     Ag       0.78240    0.78240    0.28240    1.000
    N238     N        0.81250    0.81250    0.31250    1.000
    N239     N        0.34520    0.90480    0.90480    1.000
    Ag32     Ag       0.28240    0.96760    0.96760    1.000
    N240     N        0.31250    0.93750    0.93750    1.000
    N241     N        0.40480    0.34520    0.40480    1.000
    Ag33     Ag       0.46760    0.28240    0.46760    1.000
    N242     N        0.43750    0.31250    0.43750    1.000
    N243     N        0.90480    0.40480    0.84520    1.000
    Ag34     Ag       0.96760    0.46760    0.78240    1.000
    N244     N        0.93750    0.43750    0.81250    1.000
    N245     N        0.84520    0.40480    0.90480    1.000
    Ag35     Ag       0.78240    0.46760    0.96760    1.000
    N246     N        0.81250    0.43750    0.93750    1.000
    N247     N        0.90480    0.84520    0.40480    1.000
    Ag36     Ag       0.96760    0.78240    0.46760    1.000
    N248     N        0.93750    0.81250    0.43750    1.000
    N249     N        0.40480    0.90480    0.84520    1.000
    Ag37     Ag       0.46760    0.96760    0.78240    1.000
    N250     N        0.43750    0.93750    0.81250    1.000
    N251     N        0.59520    0.15480    0.09520    1.000
    Ag38     Ag       0.53240    0.21760    0.03240    1.000
    N252     N        0.56250    0.18750    0.06250    1.000
    N253     N        0.15480    0.09520    0.59520    1.000
    Ag39     Ag       0.21760    0.03240    0.53240    1.000
    N254     N        0.18750    0.06250    0.56250    1.000
    N255     N        0.09520    0.59520    0.15480    1.000
    Ag40     Ag       0.03240    0.53240    0.21760    1.000
    N256     N        0.06250    0.56250    0.18750    1.000
    C1153    C        0.17350    0.61370    0.07650    1.000
    C1154    C        0.19350    0.59340    0.05650    1.000
    C1155    C        0.17350    0.11370    0.57650    1.000
    C1156    C        0.19350    0.09340    0.55650    1.000
    C1157    C        0.67350    0.11370    0.07650    1.000
    C1158    C        0.69350    0.09340    0.05650    1.000
    C1159    C        0.57650    0.63630    0.57650    1.000
    C1160    C        0.55650    0.65660    0.55650    1.000
    C1161    C        0.57650    0.13630    0.07650    1.000
    C1162    C        0.55650    0.15660    0.05650    1.000
    C1163    C        0.07650    0.63630    0.07650    1.000
    C1164    C        0.05650    0.65660    0.05650    1.000
    C1165    C        0.07650    0.13630    0.57650    1.000
    C1166    C        0.05650    0.15660    0.55650    1.000
    C1167    C        0.07650    0.11370    0.67350    1.000
    C1168    C        0.05650    0.09340    0.69350    1.000
    C1169    C        0.57650    0.11370    0.17350    1.000
    C1170    C        0.55650    0.09340    0.19350    1.000
    C1171    C        0.67350    0.13630    0.17350    1.000
    C1172    C        0.69350    0.15660    0.19350    1.000
    C1173    C        0.67350    0.63630    0.67350    1.000
    C1174    C        0.69350    0.65660    0.69350    1.000
    C1175    C        0.07650    0.17350    0.61370    1.000
    C1176    C        0.05650    0.19350    0.59340    1.000
    C1177    C        0.07650    0.67350    0.11370    1.000
    C1178    C        0.05650    0.69350    0.09340    1.000
    C1179    C        0.57650    0.17350    0.11370    1.000
    C1180    C        0.55650    0.19350    0.09340    1.000
    C1181    C        0.57650    0.57650    0.63630    1.000
    C1182    C        0.55650    0.55650    0.65660    1.000
    C1183    C        0.57650    0.07650    0.13630    1.000
    C1184    C        0.55650    0.05650    0.15660    1.000
    C1185    C        0.07650    0.57650    0.13630    1.000
    C1186    C        0.05650    0.55650    0.15660    1.000
    C1187    C        0.07650    0.07650    0.63630    1.000
    C1188    C        0.05650    0.05650    0.65660    1.000
    C1189    C        0.67350    0.07650    0.11370    1.000
    C1190    C        0.69350    0.05650    0.09340    1.000
    C1191    C        0.67350    0.57650    0.61370    1.000
    C1192    C        0.69350    0.55650    0.59340    1.000
    C1193    C        0.17350    0.67350    0.13630    1.000
    C1194    C        0.19350    0.69350    0.15660    1.000
    C1195    C        0.17350    0.17350    0.63630    1.000
    C1196    C        0.19350    0.19350    0.65660    1.000
    C1197    C        0.67350    0.67350    0.63630    1.000
    C1198    C        0.69350    0.69350    0.65660    1.000
    C1199    C        0.61370    0.07650    0.17350    1.000
    C1200    C        0.59340    0.05650    0.19350    1.000
    C1201    C        0.61370    0.57650    0.67350    1.000
    C1202    C        0.59340    0.55650    0.69350    1.000
    C1203    C        0.11370    0.07650    0.67350    1.000
    C1204    C        0.09340    0.05650    0.69350    1.000
    C1205    C        0.63630    0.57650    0.57650    1.000
    C1206    C        0.65660    0.55650    0.55650    1.000
    C1207    C        0.63630    0.07650    0.07650    1.000
    C1208    C        0.65660    0.05650    0.05650    1.000
    C1209    C        0.13630    0.57650    0.07650    1.000
    C1210    C        0.15660    0.55650    0.05650    1.000
    C1211    C        0.13630    0.07650    0.57650    1.000
    C1212    C        0.15660    0.05650    0.55650    1.000
    C1213    C        0.11370    0.67350    0.07650    1.000
    C1214    C        0.09340    0.69350    0.05650    1.000
    C1215    C        0.11370    0.17350    0.57650    1.000
    C1216    C        0.09340    0.19350    0.55650    1.000
    C1217    C        0.13630    0.17350    0.67350    1.000
    C1218    C        0.15660    0.19350    0.69350    1.000
    C1219    C        0.63630    0.17350    0.17350    1.000
    C1220    C        0.65660    0.19350    0.19350    1.000
    C1221    C        0.63630    0.67350    0.67350    1.000
    C1222    C        0.65660    0.69350    0.69350    1.000
    C1223    C        0.36370    0.42350    0.42350    1.000
    C1224    C        0.34340    0.44350    0.44350    1.000
    C1225    C        0.36370    0.92350    0.92350    1.000
    C1226    C        0.34340    0.94350    0.94350    1.000
    C1227    C        0.86370    0.42350    0.92350    1.000
    C1228    C        0.84340    0.44350    0.94350    1.000
    C1229    C        0.86370    0.92350    0.42350    1.000
    C1230    C        0.84340    0.94350    0.44350    1.000
    C1231    C        0.38630    0.82650    0.92350    1.000
    C1232    C        0.40660    0.80650    0.94350    1.000
    C1233    C        0.38630    0.32650    0.42350    1.000
    C1234    C        0.40660    0.30650    0.44350    1.000
    C1235    C        0.86370    0.32650    0.82650    1.000
    C1236    C        0.84340    0.30650    0.80650    1.000
    C1237    C        0.36370    0.32650    0.32650    1.000
    C1238    C        0.34340    0.30650    0.30650    1.000
    C1239    C        0.36370    0.82650    0.82650    1.000
    C1240    C        0.34340    0.80650    0.80650    1.000
    C1241    C        0.88630    0.92350    0.32650    1.000
    C1242    C        0.90660    0.94350    0.30650    1.000
    C1243    C        0.88630    0.42350    0.82650    1.000
    C1244    C        0.90660    0.44350    0.80650    1.000
    C1245    C        0.92350    0.32650    0.88630    1.000
    C1246    C        0.94350    0.30650    0.90660    1.000
    C1247    C        0.42350    0.32650    0.38630    1.000
    C1248    C        0.44350    0.30650    0.40660    1.000
    C1249    C        0.32650    0.82650    0.86370    1.000
    C1250    C        0.30650    0.80650    0.84340    1.000
    C1251    C        0.32650    0.32650    0.36370    1.000
    C1252    C        0.30650    0.30650    0.34340    1.000
    C1253    C        0.82650    0.82650    0.36370    1.000
    C1254    C        0.80650    0.80650    0.34340    1.000
    C1255    C        0.82650    0.92350    0.38630    1.000
    C1256    C        0.80650    0.94350    0.40660    1.000
    C1257    C        0.82650    0.42350    0.88630    1.000
    C1258    C        0.80650    0.44350    0.90660    1.000
    C1259    C        0.42350    0.42350    0.36370    1.000
    C1260    C        0.44350    0.44350    0.34340    1.000
    C1261    C        0.42350    0.92350    0.86370    1.000
    C1262    C        0.44350    0.94350    0.84340    1.000
    C1263    C        0.92350    0.42350    0.86370    1.000
    C1264    C        0.94350    0.44350    0.84340    1.000
    C1265    C        0.92350    0.92350    0.36370    1.000
    C1266    C        0.94350    0.94350    0.34340    1.000
    C1267    C        0.82650    0.86370    0.32650    1.000
    C1268    C        0.80650    0.84340    0.30650    1.000
    C1269    C        0.82650    0.36370    0.82650    1.000
    C1270    C        0.80650    0.34340    0.80650    1.000
    C1271    C        0.32650    0.88630    0.92350    1.000
    C1272    C        0.30650    0.90660    0.94350    1.000
    C1273    C        0.32650    0.38630    0.42350    1.000
    C1274    C        0.30650    0.40660    0.44350    1.000
    C1275    C        0.42350    0.36370    0.42350    1.000
    C1276    C        0.44350    0.34340    0.44350    1.000
    C1277    C        0.42350    0.86370    0.92350    1.000
    C1278    C        0.44350    0.84340    0.94350    1.000
    C1279    C        0.92350    0.36370    0.92350    1.000
    C1280    C        0.94350    0.34340    0.94350    1.000
    C1281    C        0.92350    0.86370    0.42350    1.000
    C1282    C        0.94350    0.84340    0.44350    1.000
    C1283    C        0.92350    0.38630    0.82650    1.000
    C1284    C        0.94350    0.40660    0.80650    1.000
    C1285    C        0.42350    0.38630    0.32650    1.000
    C1286    C        0.44350    0.40660    0.30650    1.000
    C1287    C        0.82650    0.38630    0.92350    1.000
    C1288    C        0.80650    0.40660    0.94350    1.000
    C1289    C        0.82650    0.88630    0.42350    1.000
    C1290    C        0.80650    0.90660    0.44350    1.000
    C1291    C        0.92350    0.88630    0.32650    1.000
    C1292    C        0.94350    0.90660    0.30650    1.000
    C1293    C        0.42350    0.88630    0.82650    1.000
    C1294    C        0.44350    0.90660    0.80650    1.000
    C1295    C        0.32650    0.86370    0.82650    1.000
    C1296    C        0.30650    0.84340    0.80650    1.000
    C1297    C        0.32650    0.36370    0.32650    1.000
    C1298    C        0.30650    0.34340    0.30650    1.000
    C1299    C        0.92350    0.82650    0.38630    1.000
    C1300    C        0.94350    0.80650    0.40660    1.000
    C1301    C        0.42350    0.82650    0.88630    1.000
    C1302    C        0.44350    0.80650    0.90660    1.000
    C1303    C        0.32650    0.92350    0.88630    1.000
    C1304    C        0.30650    0.94350    0.90660    1.000
    C1305    C        0.32650    0.42350    0.38630    1.000
    C1306    C        0.30650    0.44350    0.40660    1.000
    C1307    C        0.82650    0.32650    0.86370    1.000
    C1308    C        0.80650    0.30650    0.84340    1.000
    C1309    C        0.38630    0.92350    0.82650    1.000
    C1310    C        0.40660    0.94350    0.80650    1.000
    C1311    C        0.38630    0.42350    0.32650    1.000
    C1312    C        0.40660    0.44350    0.30650    1.000
    C1313    C        0.88630    0.32650    0.92350    1.000
    C1314    C        0.90660    0.30650    0.94350    1.000
    C1315    C        0.88630    0.82650    0.42350    1.000
    C1316    C        0.90660    0.80650    0.44350    1.000
    C1317    C        0.86370    0.82650    0.32650    1.000
    C1318    C        0.84340    0.80650    0.30650    1.000
    C1319    C        0.61370    0.17350    0.07650    1.000
    C1320    C        0.59340    0.19350    0.05650    1.000
    C1321    C        0.61370    0.67350    0.57650    1.000
    C1322    C        0.59340    0.69350    0.55650    1.000
    C1323    C        0.13630    0.67350    0.17350    1.000
    C1324    C        0.15660    0.69350    0.19350    1.000
    C1325    C        0.11370    0.57650    0.17350    1.000
    C1326    C        0.09340    0.55650    0.19350    1.000
    C1327    C        0.57650    0.67350    0.61370    1.000
    C1328    C        0.55650    0.69350    0.59340    1.000
    C1329    C        0.67350    0.17350    0.13630    1.000
    C1330    C        0.69350    0.19350    0.15660    1.000
    C1331    C        0.17350    0.07650    0.61370    1.000
    C1332    C        0.19350    0.05650    0.59340    1.000
    C1333    C        0.17350    0.57650    0.11370    1.000
    C1334    C        0.19350    0.55650    0.09340    1.000
    C1335    C        0.17350    0.13630    0.67350    1.000
    C1336    C        0.19350    0.15660    0.69350    1.000
    C1337    C        0.17350    0.63630    0.17350    1.000
    C1338    C        0.19350    0.65660    0.19350    1.000
    C1339    C        0.67350    0.61370    0.57650    1.000
    C1340    C        0.69350    0.59340    0.55650    1.000
    C1341    C        0.07650    0.61370    0.17350    1.000
    C1342    C        0.05650    0.59340    0.19350    1.000
    C1343    C        0.57650    0.61370    0.67350    1.000
    C1344    C        0.55650    0.59340    0.69350    1.000
    Ag41     Ag       0.37134    0.56760    0.06760    1.000
    N257     N        0.26720    0.54341    0.04341    1.000
    C1345    C        0.28680    0.52560    0.02560    1.000
    N258     N        0.32140    0.55554    0.05554    1.000
    C1346    C        0.31930    0.53310    0.03310    1.000
    N259     N        0.37210    0.60474    0.10474    1.000
    C1347    C        0.40270    0.61360    0.11360    1.000
    Ag42     Ag       0.87134    0.56760    0.56760    1.000
    N260     N        0.76720    0.54341    0.54341    1.000
    C1348    C        0.78680    0.52560    0.52560    1.000
    N261     N        0.82140    0.55554    0.55554    1.000
    C1349    C        0.81930    0.53310    0.53310    1.000
    N262     N        0.87210    0.60474    0.60474    1.000
    C1350    C        0.90270    0.61360    0.61360    1.000
    Ag43     Ag       0.37866    0.68240    0.56760    1.000
    N263     N        0.48280    0.70659    0.54341    1.000
    C1351    C        0.46320    0.72440    0.52560    1.000
    N264     N        0.42860    0.69446    0.55554    1.000
    C1352    C        0.43070    0.71690    0.53310    1.000
    N265     N        0.37790    0.64526    0.60474    1.000
    C1353    C        0.34730    0.63640    0.61360    1.000
    Ag44     Ag       0.37866    0.18240    0.06760    1.000
    N266     N        0.48280    0.20659    0.04341    1.000
    C1354    C        0.46320    0.22440    0.02560    1.000
    N267     N        0.42860    0.19446    0.05554    1.000
    C1355    C        0.43070    0.21690    0.03310    1.000
    N268     N        0.37790    0.14526    0.10474    1.000
    C1356    C        0.34730    0.13640    0.11360    1.000
    Ag45     Ag       0.87866    0.06760    0.68240    1.000
    N269     N        0.98280    0.04341    0.70659    1.000
    C1357    C        0.96320    0.02560    0.72440    1.000
    N270     N        0.92860    0.05554    0.69446    1.000
    C1358    C        0.93070    0.03310    0.71690    1.000
    N271     N        0.87790    0.10474    0.64526    1.000
    C1359    C        0.84730    0.11360    0.63640    1.000
    Ag46     Ag       0.87866    0.56760    0.18240    1.000
    N272     N        0.98280    0.54341    0.20659    1.000
    C1360    C        0.96320    0.52560    0.22440    1.000
    N273     N        0.92860    0.55554    0.19446    1.000
    C1361    C        0.93070    0.53310    0.21690    1.000
    N274     N        0.87790    0.60474    0.14526    1.000
    C1362    C        0.84730    0.61360    0.13640    1.000
    Ag47     Ag       0.87134    0.18240    0.18240    1.000
    N275     N        0.76720    0.20659    0.20659    1.000
    C1363    C        0.78680    0.22440    0.22440    1.000
    N276     N        0.82140    0.19446    0.19446    1.000
    C1364    C        0.81930    0.21690    0.21690    1.000
    N277     N        0.87210    0.14526    0.14526    1.000
    C1365    C        0.90270    0.13640    0.13640    1.000
    Ag48     Ag       0.87134    0.68240    0.68240    1.000
    N278     N        0.76720    0.70659    0.70659    1.000
    C1366    C        0.78680    0.72440    0.72440    1.000
    N279     N        0.82140    0.69446    0.69446    1.000
    C1367    C        0.81930    0.71690    0.71690    1.000
    N280     N        0.87210    0.64526    0.64526    1.000
    C1368    C        0.90270    0.63640    0.63640    1.000
    Ag49     Ag       0.37134    0.18240    0.68240    1.000
    N281     N        0.26720    0.20659    0.70659    1.000
    C1369    C        0.28680    0.22440    0.72440    1.000
    N282     N        0.32140    0.19446    0.69446    1.000
    C1370    C        0.31930    0.21690    0.71690    1.000
    N283     N        0.37210    0.14526    0.64526    1.000
    C1371    C        0.40270    0.13640    0.63640    1.000
    Ag50     Ag       0.37134    0.68240    0.18240    1.000
    N284     N        0.26720    0.70659    0.20659    1.000
    C1372    C        0.28680    0.72440    0.22440    1.000
    N285     N        0.32140    0.69446    0.19446    1.000
    C1373    C        0.31930    0.71690    0.21690    1.000
    N286     N        0.37210    0.64526    0.14526    1.000
    C1374    C        0.40270    0.63640    0.13640    1.000
    Ag51     Ag       0.06760    0.37134    0.56760    1.000
    N287     N        0.04341    0.26720    0.54341    1.000
    C1375    C        0.02560    0.28680    0.52560    1.000
    N288     N        0.05554    0.32140    0.55554    1.000
    C1376    C        0.03310    0.31930    0.53310    1.000
    N289     N        0.10474    0.37210    0.60474    1.000
    C1377    C        0.11360    0.40270    0.61360    1.000
    Ag52     Ag       0.06760    0.87134    0.06760    1.000
    N290     N        0.04341    0.76720    0.04341    1.000
    C1378    C        0.02560    0.78680    0.02560    1.000
    N291     N        0.05554    0.82140    0.05554    1.000
    C1379    C        0.03310    0.81930    0.03310    1.000
    N292     N        0.10474    0.87210    0.10474    1.000
    C1380    C        0.11360    0.90270    0.11360    1.000
    Ag53     Ag       0.56760    0.87134    0.56760    1.000
    N293     N        0.54341    0.76720    0.54341    1.000
    C1381    C        0.52560    0.78680    0.52560    1.000
    N294     N        0.55554    0.82140    0.55554    1.000
    C1382    C        0.53310    0.81930    0.53310    1.000
    N295     N        0.60474    0.87210    0.60474    1.000
    C1383    C        0.61360    0.90270    0.61360    1.000
    Ag54     Ag       0.56760    0.37866    0.68240    1.000
    N296     N        0.54341    0.48280    0.70659    1.000
    C1384    C        0.52560    0.46320    0.72440    1.000
    N297     N        0.55554    0.42860    0.69446    1.000
    C1385    C        0.53310    0.43070    0.71690    1.000
    N298     N        0.60474    0.37790    0.64526    1.000
    C1386    C        0.61360    0.34730    0.63640    1.000
    Ag55     Ag       0.56760    0.87866    0.18240    1.000
    N299     N        0.54341    0.98280    0.20659    1.000
    C1387    C        0.52560    0.96320    0.22440    1.000
    N300     N        0.55554    0.92860    0.19446    1.000
    C1388    C        0.53310    0.93070    0.21690    1.000
    N301     N        0.60474    0.87790    0.14526    1.000
    C1389    C        0.61360    0.84730    0.13640    1.000
    Ag56     Ag       0.68240    0.87866    0.06760    1.000
    N302     N        0.70659    0.98280    0.04341    1.000
    C1390    C        0.72440    0.96320    0.02560    1.000
    N303     N        0.69446    0.92860    0.05554    1.000
    C1391    C        0.71690    0.93070    0.03310    1.000
    N304     N        0.64526    0.87790    0.10474    1.000
    C1392    C        0.63640    0.84730    0.11360    1.000
    Ag57     Ag       0.18240    0.87866    0.56760    1.000
    N305     N        0.20659    0.98280    0.54341    1.000
    C1393    C        0.22440    0.96320    0.52560    1.000
    N306     N        0.19446    0.92860    0.55554    1.000
    C1394    C        0.21690    0.93070    0.53310    1.000
    N307     N        0.14526    0.87790    0.60474    1.000
    C1395    C        0.13640    0.84730    0.61360    1.000
    Ag58     Ag       0.18240    0.87134    0.18240    1.000
    N308     N        0.20659    0.76720    0.20659    1.000
    C1396    C        0.22440    0.78680    0.22440    1.000
    N309     N        0.19446    0.82140    0.19446    1.000
    C1397    C        0.21690    0.81930    0.21690    1.000
    N310     N        0.14526    0.87210    0.14526    1.000
    C1398    C        0.13640    0.90270    0.13640    1.000
    Ag59     Ag       0.18240    0.37134    0.68240    1.000
    N311     N        0.20659    0.26720    0.70659    1.000
    C1399    C        0.22440    0.28680    0.72440    1.000
    N312     N        0.19446    0.32140    0.69446    1.000
    C1400    C        0.21690    0.31930    0.71690    1.000
    N313     N        0.14526    0.37210    0.64526    1.000
    C1401    C        0.13640    0.40270    0.63640    1.000
    Ag60     Ag       0.68240    0.87134    0.68240    1.000
    N314     N        0.70659    0.76720    0.70659    1.000
    C1402    C        0.72440    0.78680    0.72440    1.000
    N315     N        0.69446    0.82140    0.69446    1.000
    C1403    C        0.71690    0.81930    0.71690    1.000
    N316     N        0.64526    0.87210    0.64526    1.000
    C1404    C        0.63640    0.90270    0.63640    1.000
    Ag61     Ag       0.68240    0.37134    0.18240    1.000
    N317     N        0.70659    0.26720    0.20659    1.000
    C1405    C        0.72440    0.28680    0.22440    1.000
    N318     N        0.69446    0.32140    0.19446    1.000
    C1406    C        0.71690    0.31930    0.21690    1.000
    N319     N        0.64526    0.37210    0.14526    1.000
    C1407    C        0.63640    0.40270    0.13640    1.000
    Ag62     Ag       0.56760    0.06760    0.37134    1.000
    N320     N        0.54341    0.04341    0.26720    1.000
    C1408    C        0.52560    0.02560    0.28680    1.000
    N321     N        0.55554    0.05554    0.32140    1.000
    C1409    C        0.53310    0.03310    0.31930    1.000
    N322     N        0.60474    0.10474    0.37210    1.000
    C1410    C        0.61360    0.11360    0.40270    1.000
    Ag63     Ag       0.56760    0.56760    0.87134    1.000
    N323     N        0.54341    0.54341    0.76720    1.000
    C1411    C        0.52560    0.52560    0.78680    1.000
    N324     N        0.55554    0.55554    0.82140    1.000
    C1412    C        0.53310    0.53310    0.81930    1.000
    N325     N        0.60474    0.60474    0.87210    1.000
    C1413    C        0.61360    0.61360    0.90270    1.000
    Ag64     Ag       0.68240    0.56760    0.37866    1.000
    N326     N        0.70659    0.54341    0.48280    1.000
    C1414    C        0.72440    0.52560    0.46320    1.000
    N327     N        0.69446    0.55554    0.42860    1.000
    C1415    C        0.71690    0.53310    0.43070    1.000
    N328     N        0.64526    0.60474    0.37790    1.000
    C1416    C        0.63640    0.61360    0.34730    1.000
    Ag65     Ag       0.18240    0.56760    0.87866    1.000
    N329     N        0.20659    0.54341    0.98280    1.000
    C1417    C        0.22440    0.52560    0.96320    1.000
    N330     N        0.19446    0.55554    0.92860    1.000
    C1418    C        0.21690    0.53310    0.93070    1.000
    N331     N        0.14526    0.60474    0.87790    1.000
    C1419    C        0.13640    0.61360    0.84730    1.000
    Ag66     Ag       0.06760    0.68240    0.87866    1.000
    N332     N        0.04341    0.70659    0.98280    1.000
    C1420    C        0.02560    0.72440    0.96320    1.000
    N333     N        0.05554    0.69446    0.92860    1.000
    C1421    C        0.03310    0.71690    0.93070    1.000
    N334     N        0.10474    0.64526    0.87790    1.000
    C1422    C        0.11360    0.63640    0.84730    1.000
    Ag67     Ag       0.06760    0.18240    0.37866    1.000
    N335     N        0.04341    0.20659    0.48280    1.000
    C1423    C        0.02560    0.22440    0.46320    1.000
    N336     N        0.05554    0.19446    0.42860    1.000
    C1424    C        0.03310    0.21690    0.43070    1.000
    N337     N        0.10474    0.14526    0.37790    1.000
    C1425    C        0.11360    0.13640    0.34730    1.000
    Ag68     Ag       0.18240    0.18240    0.87134    1.000
    N338     N        0.20659    0.20659    0.76720    1.000
    C1426    C        0.22440    0.22440    0.78680    1.000
    N339     N        0.19446    0.19446    0.82140    1.000
    C1427    C        0.21690    0.21690    0.81930    1.000
    N340     N        0.14526    0.14526    0.87210    1.000
    C1428    C        0.13640    0.13640    0.90270    1.000
    Ag69     Ag       0.18240    0.68240    0.37134    1.000
    N341     N        0.20659    0.70659    0.26720    1.000
    C1429    C        0.22440    0.72440    0.28680    1.000
    N342     N        0.19446    0.69446    0.32140    1.000
    C1430    C        0.21690    0.71690    0.31930    1.000
    N343     N        0.14526    0.64526    0.37210    1.000
    C1431    C        0.13640    0.63640    0.40270    1.000
    Ag70     Ag       0.68240    0.18240    0.37134    1.000
    N344     N        0.70659    0.20659    0.26720    1.000
    C1432    C        0.72440    0.22440    0.28680    1.000
    N345     N        0.69446    0.19446    0.32140    1.000
    C1433    C        0.71690    0.21690    0.31930    1.000
    N346     N        0.64526    0.14526    0.37210    1.000
    C1434    C        0.63640    0.13640    0.40270    1.000
    Ag71     Ag       0.68240    0.68240    0.87134    1.000
    N347     N        0.70659    0.70659    0.76720    1.000
    C1435    C        0.72440    0.72440    0.78680    1.000
    N348     N        0.69446    0.69446    0.82140    1.000
    C1436    C        0.71690    0.71690    0.81930    1.000
    N349     N        0.64526    0.64526    0.87210    1.000
    C1437    C        0.63640    0.63640    0.90270    1.000
    Ag72     Ag       0.31760    0.62134    0.43240    1.000
    N350     N        0.29341    0.51720    0.45659    1.000
    C1438    C        0.27560    0.53680    0.47440    1.000
    N351     N        0.30554    0.57140    0.44446    1.000
    C1439    C        0.28310    0.56930    0.46690    1.000
    N352     N        0.35474    0.62210    0.39526    1.000
    C1440    C        0.36360    0.65270    0.38640    1.000
    Ag73     Ag       0.81760    0.62134    0.93240    1.000
    N353     N        0.79341    0.51720    0.95659    1.000
    C1441    C        0.77560    0.53680    0.97440    1.000
    N354     N        0.80554    0.57140    0.94446    1.000
    C1442    C        0.78310    0.56930    0.96690    1.000
    N355     N        0.85474    0.62210    0.89526    1.000
    C1443    C        0.86360    0.65270    0.88640    1.000
    Ag74     Ag       0.43240    0.62866    0.93240    1.000
    N356     N        0.45659    0.73280    0.95659    1.000
    C1444    C        0.47440    0.71320    0.97440    1.000
    N357     N        0.44446    0.67860    0.94446    1.000
    C1445    C        0.46690    0.68070    0.96690    1.000
    N358     N        0.39526    0.62790    0.89526    1.000
    C1446    C        0.38640    0.59730    0.88640    1.000
    Ag75     Ag       0.43240    0.12866    0.43240    1.000
    N359     N        0.45659    0.23280    0.45659    1.000
    C1447    C        0.47440    0.21320    0.47440    1.000
    N360     N        0.44446    0.17860    0.44446    1.000
    C1448    C        0.46690    0.18070    0.46690    1.000
    N361     N        0.39526    0.12790    0.39526    1.000
    C1449    C        0.38640    0.09730    0.38640    1.000
    Ag76     Ag       0.93240    0.12866    0.93240    1.000
    N362     N        0.95659    0.23280    0.95659    1.000
    C1450    C        0.97440    0.21320    0.97440    1.000
    N363     N        0.94446    0.17860    0.94446    1.000
    C1451    C        0.96690    0.18070    0.96690    1.000
    N364     N        0.89526    0.12790    0.89526    1.000
    C1452    C        0.88640    0.09730    0.88640    1.000
    Ag77     Ag       0.81760    0.12866    0.81760    1.000
    N365     N        0.79341    0.23280    0.79341    1.000
    C1453    C        0.77560    0.21320    0.77560    1.000
    N366     N        0.80554    0.17860    0.80554    1.000
    C1454    C        0.78310    0.18070    0.78310    1.000
    N367     N        0.85474    0.12790    0.85474    1.000
    C1455    C        0.86360    0.09730    0.86360    1.000
    Ag78     Ag       0.81760    0.62866    0.31760    1.000
    N368     N        0.79341    0.73280    0.29341    1.000
    C1456    C        0.77560    0.71320    0.27560    1.000
    N369     N        0.80554    0.67860    0.30554    1.000
    C1457    C        0.78310    0.68070    0.28310    1.000
    N370     N        0.85474    0.62790    0.35474    1.000
    C1458    C        0.86360    0.59730    0.36360    1.000
    Ag79     Ag       0.31760    0.12866    0.31760    1.000
    N371     N        0.29341    0.23280    0.29341    1.000
    C1459    C        0.27560    0.21320    0.27560    1.000
    N372     N        0.30554    0.17860    0.30554    1.000
    C1460    C        0.28310    0.18070    0.28310    1.000
    N373     N        0.35474    0.12790    0.35474    1.000
    C1461    C        0.36360    0.09730    0.36360    1.000
    Ag80     Ag       0.31760    0.62866    0.81760    1.000
    N374     N        0.29341    0.73280    0.79341    1.000
    C1462    C        0.27560    0.71320    0.77560    1.000
    N375     N        0.30554    0.67860    0.80554    1.000
    C1463    C        0.28310    0.68070    0.78310    1.000
    N376     N        0.35474    0.62790    0.85474    1.000
    C1464    C        0.36360    0.59730    0.86360    1.000
    Ag81     Ag       0.93240    0.12134    0.31760    1.000
    N377     N        0.95659    0.01720    0.29341    1.000
    C1465    C        0.97440    0.03680    0.27560    1.000
    N378     N        0.94446    0.07140    0.30554    1.000
    C1466    C        0.96690    0.06930    0.28310    1.000
    N379     N        0.89526    0.12210    0.35474    1.000
    C1467    C        0.88640    0.15270    0.36360    1.000
    Ag82     Ag       0.93240    0.62134    0.81760    1.000
    N380     N        0.95659    0.51720    0.79341    1.000
    C1468    C        0.97440    0.53680    0.77560    1.000
    N381     N        0.94446    0.57140    0.80554    1.000
    C1469    C        0.96690    0.56930    0.78310    1.000
    N382     N        0.89526    0.62210    0.85474    1.000
    C1470    C        0.88640    0.65270    0.86360    1.000
    Ag83     Ag       0.12134    0.31760    0.93240    1.000
    N383     N        0.01720    0.29341    0.95659    1.000
    C1471    C        0.03680    0.27560    0.97440    1.000
    N384     N        0.07140    0.30554    0.94446    1.000
    C1472    C        0.06930    0.28310    0.96690    1.000
    N385     N        0.12210    0.35474    0.89526    1.000
    C1473    C        0.15270    0.36360    0.88640    1.000
    Ag84     Ag       0.12134    0.81760    0.43240    1.000
    N386     N        0.01720    0.79341    0.45659    1.000
    C1474    C        0.03680    0.77560    0.47440    1.000
    N387     N        0.07140    0.80554    0.44446    1.000
    C1475    C        0.06930    0.78310    0.46690    1.000
    N388     N        0.12210    0.85474    0.39526    1.000
    C1476    C        0.15270    0.86360    0.38640    1.000
    Ag85     Ag       0.12866    0.81760    0.81760    1.000
    N389     N        0.23280    0.79341    0.79341    1.000
    C1477    C        0.21320    0.77560    0.77560    1.000
    N390     N        0.17860    0.80554    0.80554    1.000
    C1478    C        0.18070    0.78310    0.78310    1.000
    N391     N        0.12790    0.85474    0.85474    1.000
    C1479    C        0.09730    0.86360    0.86360    1.000
    Ag86     Ag       0.12866    0.31760    0.31760    1.000
    N392     N        0.23280    0.29341    0.29341    1.000
    C1480    C        0.21320    0.27560    0.27560    1.000
    N393     N        0.17860    0.30554    0.30554    1.000
    C1481    C        0.18070    0.28310    0.28310    1.000
    N394     N        0.12790    0.35474    0.35474    1.000
    C1482    C        0.09730    0.36360    0.36360    1.000
    Ag87     Ag       0.62866    0.81760    0.31760    1.000
    N395     N        0.73280    0.79341    0.29341    1.000
    C1483    C        0.71320    0.77560    0.27560    1.000
    N396     N        0.67860    0.80554    0.30554    1.000
    C1484    C        0.68070    0.78310    0.28310    1.000
    N397     N        0.62790    0.85474    0.35474    1.000
    C1485    C        0.59730    0.86360    0.36360    1.000
    Ag88     Ag       0.62866    0.31760    0.81760    1.000
    N398     N        0.73280    0.29341    0.79341    1.000
    C1486    C        0.71320    0.27560    0.77560    1.000
    N399     N        0.67860    0.30554    0.80554    1.000
    C1487    C        0.68070    0.28310    0.78310    1.000
    N400     N        0.62790    0.35474    0.85474    1.000
    C1488    C        0.59730    0.36360    0.86360    1.000
    Ag89     Ag       0.62866    0.93240    0.43240    1.000
    N401     N        0.73280    0.95659    0.45659    1.000
    C1489    C        0.71320    0.97440    0.47440    1.000
    N402     N        0.67860    0.94446    0.44446    1.000
    C1490    C        0.68070    0.96690    0.46690    1.000
    N403     N        0.62790    0.89526    0.39526    1.000
    C1491    C        0.59730    0.88640    0.38640    1.000
    Ag90     Ag       0.12866    0.93240    0.93240    1.000
    N404     N        0.23280    0.95659    0.95659    1.000
    C1492    C        0.21320    0.97440    0.97440    1.000
    N405     N        0.17860    0.94446    0.94446    1.000
    C1493    C        0.18070    0.96690    0.96690    1.000
    N406     N        0.12790    0.89526    0.89526    1.000
    C1494    C        0.09730    0.88640    0.88640    1.000
    Ag91     Ag       0.62134    0.43240    0.31760    1.000
    N407     N        0.51720    0.45659    0.29341    1.000
    C1495    C        0.53680    0.47440    0.27560    1.000
    N408     N        0.57140    0.44446    0.30554    1.000
    C1496    C        0.56930    0.46690    0.28310    1.000
    N409     N        0.62210    0.39526    0.35474    1.000
    C1497    C        0.65270    0.38640    0.36360    1.000
    Ag92     Ag       0.62134    0.93240    0.81760    1.000
    N410     N        0.51720    0.95659    0.79341    1.000
    C1498    C        0.53680    0.97440    0.77560    1.000
    N411     N        0.57140    0.94446    0.80554    1.000
    C1499    C        0.56930    0.96690    0.78310    1.000
    N412     N        0.62210    0.89526    0.85474    1.000
    C1500    C        0.65270    0.88640    0.86360    1.000
    Ag93     Ag       0.81760    0.81760    0.12866    1.000
    N413     N        0.79341    0.79341    0.23280    1.000
    C1501    C        0.77560    0.77560    0.21320    1.000
    N414     N        0.80554    0.80554    0.17860    1.000
    C1502    C        0.78310    0.78310    0.18070    1.000
    N415     N        0.85474    0.85474    0.12790    1.000
    C1503    C        0.86360    0.86360    0.09730    1.000
    Ag94     Ag       0.81760    0.31760    0.62866    1.000
    N416     N        0.79341    0.29341    0.73280    1.000
    C1504    C        0.77560    0.27560    0.71320    1.000
    N417     N        0.80554    0.30554    0.67860    1.000
    C1505    C        0.78310    0.28310    0.68070    1.000
    N418     N        0.85474    0.35474    0.62790    1.000
    C1506    C        0.86360    0.36360    0.59730    1.000
    Ag95     Ag       0.31760    0.81760    0.62866    1.000
    N419     N        0.29341    0.79341    0.73280    1.000
    C1507    C        0.27560    0.77560    0.71320    1.000
    N420     N        0.30554    0.80554    0.67860    1.000
    C1508    C        0.28310    0.78310    0.68070    1.000
    N421     N        0.35474    0.85474    0.62790    1.000
    C1509    C        0.36360    0.86360    0.59730    1.000
    Ag96     Ag       0.31760    0.31760    0.12866    1.000
    N422     N        0.29341    0.29341    0.23280    1.000
    C1510    C        0.27560    0.27560    0.21320    1.000
    N423     N        0.30554    0.30554    0.17860    1.000
    C1511    C        0.28310    0.28310    0.18070    1.000
    N424     N        0.35474    0.35474    0.12790    1.000
    C1512    C        0.36360    0.36360    0.09730    1.000
    Ag97     Ag       0.31760    0.93240    0.12134    1.000
    N425     N        0.29341    0.95659    0.01720    1.000
    C1513    C        0.27560    0.97440    0.03680    1.000
    N426     N        0.30554    0.94446    0.07140    1.000
    C1514    C        0.28310    0.96690    0.06930    1.000
    N427     N        0.35474    0.89526    0.12210    1.000
    C1515    C        0.36360    0.88640    0.15270    1.000
    Ag98     Ag       0.81760    0.93240    0.62134    1.000
    N428     N        0.79341    0.95659    0.51720    1.000
    C1516    C        0.77560    0.97440    0.53680    1.000
    N429     N        0.80554    0.94446    0.57140    1.000
    C1517    C        0.78310    0.96690    0.56930    1.000
    N430     N        0.85474    0.89526    0.62210    1.000
    C1518    C        0.86360    0.88640    0.65270    1.000
    Ag99     Ag       0.43240    0.31760    0.62134    1.000
    N431     N        0.45659    0.29341    0.51720    1.000
    C1519    C        0.47440    0.27560    0.53680    1.000
    N432     N        0.44446    0.30554    0.57140    1.000
    C1520    C        0.46690    0.28310    0.56930    1.000
    N433     N        0.39526    0.35474    0.62210    1.000
    C1521    C        0.38640    0.36360    0.65270    1.000
    Ag100    Ag       0.43240    0.81760    0.12134    1.000
    N434     N        0.45659    0.79341    0.01720    1.000
    C1522    C        0.47440    0.77560    0.03680    1.000
    N435     N        0.44446    0.80554    0.07140    1.000
    C1523    C        0.46690    0.78310    0.06930    1.000
    N436     N        0.39526    0.85474    0.12210    1.000
    C1524    C        0.38640    0.86360    0.15270    1.000
    Ag101    Ag       0.93240    0.43240    0.62866    1.000
    N437     N        0.95659    0.45659    0.73280    1.000
    C1525    C        0.97440    0.47440    0.71320    1.000
    N438     N        0.94446    0.44446    0.67860    1.000
    C1526    C        0.96690    0.46690    0.68070    1.000
    N439     N        0.89526    0.39526    0.62790    1.000
    C1527    C        0.88640    0.38640    0.59730    1.000
    Ag102    Ag       0.93240    0.93240    0.12866    1.000
    N440     N        0.95659    0.95659    0.23280    1.000
    C1528    C        0.97440    0.97440    0.21320    1.000
    N441     N        0.94446    0.94446    0.17860    1.000
    C1529    C        0.96690    0.96690    0.18070    1.000
    N442     N        0.89526    0.89526    0.12790    1.000
    C1530    C        0.88640    0.88640    0.09730    1.000
    Ag103    Ag       0.62866    0.43240    0.93240    1.000
    N443     N        0.73280    0.45659    0.95659    1.000
    C1531    C        0.71320    0.47440    0.97440    1.000
    N444     N        0.67860    0.44446    0.94446    1.000
    C1532    C        0.68070    0.46690    0.96690    1.000
    N445     N        0.62790    0.39526    0.89526    1.000
    C1533    C        0.59730    0.38640    0.88640    1.000
    Ag104    Ag       0.12866    0.43240    0.43240    1.000
    N446     N        0.23280    0.45659    0.45659    1.000
    C1534    C        0.21320    0.47440    0.47440    1.000
    N447     N        0.17860    0.44446    0.44446    1.000
    C1535    C        0.18070    0.46690    0.46690    1.000
    N448     N        0.12790    0.39526    0.39526    1.000
    C1536    C        0.09730    0.38640    0.38640    1.000
    Ag105    Ag       0.62134    0.31760    0.43240    1.000
    N449     N        0.51720    0.29341    0.45659    1.000
    C1537    C        0.53680    0.27560    0.47440    1.000
    N450     N        0.57140    0.30554    0.44446    1.000
    C1538    C        0.56930    0.28310    0.46690    1.000
    N451     N        0.62210    0.35474    0.39526    1.000
    C1539    C        0.65270    0.36360    0.38640    1.000
    Ag106    Ag       0.62134    0.81760    0.93240    1.000
    N452     N        0.51720    0.79341    0.95659    1.000
    C1540    C        0.53680    0.77560    0.97440    1.000
    N453     N        0.57140    0.80554    0.94446    1.000
    C1541    C        0.56930    0.78310    0.96690    1.000
    N454     N        0.62210    0.85474    0.89526    1.000
    C1542    C        0.65270    0.86360    0.88640    1.000
    Ag107    Ag       0.12134    0.93240    0.31760    1.000
    N455     N        0.01720    0.95659    0.29341    1.000
    C1543    C        0.03680    0.97440    0.27560    1.000
    N456     N        0.07140    0.94446    0.30554    1.000
    C1544    C        0.06930    0.96690    0.28310    1.000
    N457     N        0.12210    0.89526    0.35474    1.000
    C1545    C        0.15270    0.88640    0.36360    1.000
    Ag108    Ag       0.12134    0.43240    0.81760    1.000
    N458     N        0.01720    0.45659    0.79341    1.000
    C1546    C        0.03680    0.47440    0.77560    1.000
    N459     N        0.07140    0.44446    0.80554    1.000
    C1547    C        0.06930    0.46690    0.78310    1.000
    N460     N        0.12210    0.39526    0.85474    1.000
    C1548    C        0.15270    0.38640    0.86360    1.000
    Ag109    Ag       0.93240    0.62866    0.43240    1.000
    N461     N        0.95659    0.73280    0.45659    1.000
    C1549    C        0.97440    0.71320    0.47440    1.000
    N462     N        0.94446    0.67860    0.44446    1.000
    C1550    C        0.96690    0.68070    0.46690    1.000
    N463     N        0.89526    0.62790    0.39526    1.000
    C1551    C        0.88640    0.59730    0.38640    1.000
    Ag110    Ag       0.43240    0.62134    0.31760    1.000
    N464     N        0.45659    0.51720    0.29341    1.000
    C1552    C        0.47440    0.53680    0.27560    1.000
    N465     N        0.44446    0.57140    0.30554    1.000
    C1553    C        0.46690    0.56930    0.28310    1.000
    N466     N        0.39526    0.62210    0.35474    1.000
    C1554    C        0.38640    0.65270    0.36360    1.000
    Ag111    Ag       0.43240    0.12134    0.81760    1.000
    N467     N        0.45659    0.01720    0.79341    1.000
    C1555    C        0.47440    0.03680    0.77560    1.000
    N468     N        0.44446    0.07140    0.80554    1.000
    C1556    C        0.46690    0.06930    0.78310    1.000
    N469     N        0.39526    0.12210    0.85474    1.000
    C1557    C        0.38640    0.15270    0.86360    1.000
    Ag112    Ag       0.31760    0.12134    0.93240    1.000
    N470     N        0.29341    0.01720    0.95659    1.000
    C1558    C        0.27560    0.03680    0.97440    1.000
    N471     N        0.30554    0.07140    0.94446    1.000
    C1559    C        0.28310    0.06930    0.96690    1.000
    N472     N        0.35474    0.12210    0.89526    1.000
    C1560    C        0.36360    0.15270    0.88640    1.000
    Ag113    Ag       0.81760    0.12134    0.43240    1.000
    N473     N        0.79341    0.01720    0.45659    1.000
    C1561    C        0.77560    0.03680    0.47440    1.000
    N474     N        0.80554    0.07140    0.44446    1.000
    C1562    C        0.78310    0.06930    0.46690    1.000
    N475     N        0.85474    0.12210    0.39526    1.000
    C1563    C        0.86360    0.15270    0.38640    1.000
    Ag114    Ag       0.43240    0.93240    0.62866    1.000
    N476     N        0.45659    0.95659    0.73280    1.000
    C1564    C        0.47440    0.97440    0.71320    1.000
    N477     N        0.44446    0.94446    0.67860    1.000
    C1565    C        0.46690    0.96690    0.68070    1.000
    N478     N        0.39526    0.89526    0.62790    1.000
    C1566    C        0.38640    0.88640    0.59730    1.000
    Ag115    Ag       0.43240    0.43240    0.12866    1.000
    N479     N        0.45659    0.45659    0.23280    1.000
    C1567    C        0.47440    0.47440    0.21320    1.000
    N480     N        0.44446    0.44446    0.17860    1.000
    C1568    C        0.46690    0.46690    0.18070    1.000
    N481     N        0.39526    0.39526    0.12790    1.000
    C1569    C        0.38640    0.38640    0.09730    1.000
    Ag116    Ag       0.31760    0.43240    0.62134    1.000
    N482     N        0.29341    0.45659    0.51720    1.000
    C1570    C        0.27560    0.47440    0.53680    1.000
    N483     N        0.30554    0.44446    0.57140    1.000
    C1571    C        0.28310    0.46690    0.56930    1.000
    N484     N        0.35474    0.39526    0.62210    1.000
    C1572    C        0.36360    0.38640    0.65270    1.000
    Ag117    Ag       0.81760    0.43240    0.12134    1.000
    N485     N        0.79341    0.45659    0.01720    1.000
    C1573    C        0.77560    0.47440    0.03680    1.000
    N486     N        0.80554    0.44446    0.07140    1.000
    C1574    C        0.78310    0.46690    0.06930    1.000
    N487     N        0.85474    0.39526    0.12210    1.000
    C1575    C        0.86360    0.38640    0.15270    1.000
    Ag118    Ag       0.93240    0.31760    0.12134    1.000
    N488     N        0.95659    0.29341    0.01720    1.000
    C1576    C        0.97440    0.27560    0.03680    1.000
    N489     N        0.94446    0.30554    0.07140    1.000
    C1577    C        0.96690    0.28310    0.06930    1.000
    N490     N        0.89526    0.35474    0.12210    1.000
    C1578    C        0.88640    0.36360    0.15270    1.000
    Ag119    Ag       0.93240    0.81760    0.62134    1.000
    N491     N        0.95659    0.79341    0.51720    1.000
    C1579    C        0.97440    0.77560    0.53680    1.000
    N492     N        0.94446    0.80554    0.57140    1.000
    C1580    C        0.96690    0.78310    0.56930    1.000
    N493     N        0.89526    0.85474    0.62210    1.000
    C1581    C        0.88640    0.86360    0.65270    1.000
    Ag120    Ag       0.68240    0.37866    0.56760    1.000
    N494     N        0.70659    0.48280    0.54341    1.000
    C1582    C        0.72440    0.46320    0.52560    1.000
    N495     N        0.69446    0.42860    0.55554    1.000
    C1583    C        0.71690    0.43070    0.53310    1.000
    N496     N        0.64526    0.37790    0.60474    1.000
    C1584    C        0.63640    0.34730    0.61360    1.000
    Ag121    Ag       0.18240    0.37866    0.06760    1.000
    N497     N        0.20659    0.48280    0.04341    1.000
    C1585    C        0.22440    0.46320    0.02560    1.000
    N498     N        0.19446    0.42860    0.05554    1.000
    C1586    C        0.21690    0.43070    0.03310    1.000
    N499     N        0.14526    0.37790    0.10474    1.000
    C1587    C        0.13640    0.34730    0.11360    1.000
    Ag122    Ag       0.56760    0.37134    0.06760    1.000
    N500     N        0.54341    0.26720    0.04341    1.000
    C1588    C        0.52560    0.28680    0.02560    1.000
    N501     N        0.55554    0.32140    0.05554    1.000
    C1589    C        0.53310    0.31930    0.03310    1.000
    N502     N        0.60474    0.37210    0.10474    1.000
    C1590    C        0.61360    0.40270    0.11360    1.000
    Ag123    Ag       0.06760    0.87866    0.68240    1.000
    N503     N        0.04341    0.98280    0.70659    1.000
    C1591    C        0.02560    0.96320    0.72440    1.000
    N504     N        0.05554    0.92860    0.69446    1.000
    C1592    C        0.03310    0.93070    0.71690    1.000
    N505     N        0.10474    0.87790    0.64526    1.000
    C1593    C        0.11360    0.84730    0.63640    1.000
    Ag124    Ag       0.06760    0.37866    0.18240    1.000
    N506     N        0.04341    0.48280    0.20659    1.000
    C1594    C        0.02560    0.46320    0.22440    1.000
    N507     N        0.05554    0.42860    0.19446    1.000
    C1595    C        0.03310    0.43070    0.21690    1.000
    N508     N        0.10474    0.37790    0.14526    1.000
    C1596    C        0.11360    0.34730    0.13640    1.000
    Ag125    Ag       0.87866    0.68240    0.06760    1.000
    N509     N        0.98280    0.70659    0.04341    1.000
    C1597    C        0.96320    0.72440    0.02560    1.000
    N510     N        0.92860    0.69446    0.05554    1.000
    C1598    C        0.93070    0.71690    0.03310    1.000
    N511     N        0.87790    0.64526    0.10474    1.000
    C1599    C        0.84730    0.63640    0.11360    1.000
    Ag126    Ag       0.87866    0.18240    0.56760    1.000
    N512     N        0.98280    0.20659    0.54341    1.000
    C1600    C        0.96320    0.22440    0.52560    1.000
    N513     N        0.92860    0.19446    0.55554    1.000
    C1601    C        0.93070    0.21690    0.53310    1.000
    N514     N        0.87790    0.14526    0.60474    1.000
    C1602    C        0.84730    0.13640    0.61360    1.000
    Ag127    Ag       0.37134    0.06760    0.56760    1.000
    N515     N        0.26720    0.04341    0.54341    1.000
    C1603    C        0.28680    0.02560    0.52560    1.000
    N516     N        0.32140    0.05554    0.55554    1.000
    C1604    C        0.31930    0.03310    0.53310    1.000
    N517     N        0.37210    0.10474    0.60474    1.000
    C1605    C        0.40270    0.11360    0.61360    1.000
    Ag128    Ag       0.87134    0.06760    0.06760    1.000
    N518     N        0.76720    0.04341    0.04341    1.000
    C1606    C        0.78680    0.02560    0.02560    1.000
    N519     N        0.82140    0.05554    0.05554    1.000
    C1607    C        0.81930    0.03310    0.03310    1.000
    N520     N        0.87210    0.10474    0.10474    1.000
    C1608    C        0.90270    0.11360    0.11360    1.000
    Ag129    Ag       0.37866    0.56760    0.68240    1.000
    N521     N        0.48280    0.54341    0.70659    1.000
    C1609    C        0.46320    0.52560    0.72440    1.000
    N522     N        0.42860    0.55554    0.69446    1.000
    C1610    C        0.43070    0.53310    0.71690    1.000
    N523     N        0.37790    0.60474    0.64526    1.000
    C1611    C        0.34730    0.61360    0.63640    1.000
    Ag130    Ag       0.37866    0.06760    0.18240    1.000
    N524     N        0.48280    0.04341    0.20659    1.000
    C1612    C        0.46320    0.02560    0.22440    1.000
    N525     N        0.42860    0.05554    0.19446    1.000
    C1613    C        0.43070    0.03310    0.21690    1.000
    N526     N        0.37790    0.10474    0.14526    1.000
    C1614    C        0.34730    0.11360    0.13640    1.000
    Ag131    Ag       0.68240    0.06760    0.87866    1.000
    N527     N        0.70659    0.04341    0.98280    1.000
    C1615    C        0.72440    0.02560    0.96320    1.000
    N528     N        0.69446    0.05554    0.92860    1.000
    C1616    C        0.71690    0.03310    0.93070    1.000
    N529     N        0.64526    0.10474    0.87790    1.000
    C1617    C        0.63640    0.11360    0.84730    1.000
    Ag132    Ag       0.18240    0.06760    0.37866    1.000
    N530     N        0.20659    0.04341    0.48280    1.000
    C1618    C        0.22440    0.02560    0.46320    1.000
    N531     N        0.19446    0.05554    0.42860    1.000
    C1619    C        0.21690    0.03310    0.43070    1.000
    N532     N        0.14526    0.10474    0.37790    1.000
    C1620    C        0.13640    0.11360    0.34730    1.000
    Ag133    Ag       0.56760    0.68240    0.37866    1.000
    N533     N        0.54341    0.70659    0.48280    1.000
    C1621    C        0.52560    0.72440    0.46320    1.000
    N534     N        0.55554    0.69446    0.42860    1.000
    C1622    C        0.53310    0.71690    0.43070    1.000
    N535     N        0.60474    0.64526    0.37790    1.000
    C1623    C        0.61360    0.63640    0.34730    1.000
    Ag134    Ag       0.56760    0.18240    0.87866    1.000
    N536     N        0.54341    0.20659    0.98280    1.000
    C1624    C        0.52560    0.22440    0.96320    1.000
    N537     N        0.55554    0.19446    0.92860    1.000
    C1625    C        0.53310    0.21690    0.93070    1.000
    N538     N        0.60474    0.14526    0.87790    1.000
    C1626    C        0.61360    0.13640    0.84730    1.000
    Ag135    Ag       0.06760    0.56760    0.37134    1.000
    N539     N        0.04341    0.54341    0.26720    1.000
    C1627    C        0.02560    0.52560    0.28680    1.000
    N540     N        0.05554    0.55554    0.32140    1.000
    C1628    C        0.03310    0.53310    0.31930    1.000
    N541     N        0.10474    0.60474    0.37210    1.000
    C1629    C        0.11360    0.61360    0.40270    1.000
    Ag136    Ag       0.06760    0.06760    0.87134    1.000
    N542     N        0.04341    0.04341    0.76720    1.000
    C1630    C        0.02560    0.02560    0.78680    1.000
    N543     N        0.05554    0.05554    0.82140    1.000
    C1631    C        0.03310    0.03310    0.81930    1.000
    N544     N        0.10474    0.10474    0.87210    1.000
    C1632    C        0.11360    0.11360    0.90270    1.000
