# CIF file generated by openbabel 3.1.0, see https://openbabel.org
data_I
_chemical_name_common 'image0'
_cell_length_a 34.9032
_cell_length_b 14.8011
_cell_length_c 31.0811
_cell_angle_alpha 90
_cell_angle_beta 101.564
_cell_angle_gamma 90
_space_group_name_H-M_alt 'P 1'
_space_group_name_Hall 'P 1'
loop_
    _symmetry_equiv_pos_as_xyz
    x,y,z
loop_
    _atom_site_label
    _atom_site_type_symbol
    _atom_site_fract_x
    _atom_site_fract_y
    _atom_site_fract_z
    _atom_site_occupancy
    Zn1      Zn       0.37390    0.90015    0.43819    1.000
    Zn2      Zn       0.16900    0.35850    0.76610    1.000
    I1       I        0.22939    0.26360    0.78940    1.000
    I2       I        0.12268    0.34160    0.69375    1.000
    Zn3      Zn       0.08014    0.86970    0.09210    1.000
    I3       I        0.02446    0.84796    0.12888    1.000
    I4       I        0.11672    0.75690    0.05498    1.000
    I5       I        0.39537    0.76420    0.39886    1.000
    I6       I        0.35571    0.91340    0.51258    1.000
    N1       N        0.13898    0.34070    0.81800    1.000
    C1       C        0.10680    0.38800    0.81670    1.000
    H1       H        0.10000    0.43330    0.79480    1.000
    C2       C        0.08240    0.37400    0.84630    1.000
    H2       H        0.05860    0.40690    0.84340    1.000
    C3       C        0.09236    0.31320    0.87940    1.000
    C4       C        0.12710    0.26630    0.88120    1.000
    H3       H        0.13530    0.22300    0.90370    1.000
    C5       C        0.14930    0.28210    0.85080    1.000
    H4       H        0.17330    0.25010    0.85300    1.000
    N2       N        0.06851    0.98160    0.04747    1.000
    C6       C        0.03721    0.03350    0.04607    1.000
    H5       H        0.01860    0.01690    0.06310    1.000
    C7       C        0.03083    0.11080    0.02070    1.000
    H6       H        0.00850    0.14730    0.02090    1.000
    C8       C        0.05727    0.13430    0.99497    1.000
    C9       C        0.09010    0.07990    0.99570    1.000
    H7       H        0.10910    0.09430    0.97890    1.000
    C10      C        0.09360    0.00280    0.02260    1.000
    H8       H        0.11520    0.96390    0.02290    1.000
    N3       N        0.92049    0.51250    0.94153    1.000
    C11      C        0.93390    0.49890    0.90610    1.000
    H9       H        0.92130    0.52760    0.87970    1.000
    C12      C        0.96610    0.44350    0.90530    1.000
    H10      H        0.97550    0.43500    0.87890    1.000
    C13      C        0.98378    0.40180    0.94311    1.000
    C14      C        0.96748    0.41020    0.97940    1.000
    H11      H        0.97780    0.37760    0.00550    1.000
    C15      C        0.93561    0.46680    0.97750    1.000
    H12      H        0.92430    0.47310    0.00270    1.000
    C16      C        0.06766    0.29700    0.91174    1.000
    N4       N        0.07468    0.22490    0.93756    1.000
    C17      C        0.05198    0.21620    0.96687    1.000
    N5       N        0.02340    0.27400    0.97197    1.000
    C18      C        0.01773    0.34090    0.94272    1.000
    N6       N        0.03828    0.35620    0.91212    1.000
    N7       N        0.12194    0.94190    0.13974    1.000
    C19      C        0.11590    0.02760    0.14650    1.000
    H13      H        0.09510    0.05730    0.12720    1.000
    C20      C        0.13810    0.07690    0.18030    1.000
    H14      H        0.13330    0.13950    0.18340    1.000
    C21      C        0.16705    0.03440    0.20886    1.000
    C22      C        0.17317    0.94490    0.20230    1.000
    H15      H        0.19290    0.91300    0.22190    1.000
    C23      C        0.15060    0.90100    0.16710    1.000
    H16      H        0.15580    0.83920    0.16230    1.000
    N8       N        0.33098    0.96530    0.39343    1.000
    C24      C        0.32340    0.05110    0.39870    1.000
    H17      H        0.33870    0.08260    0.42280    1.000
    C25      C        0.29409    0.09820    0.37050    1.000
    H18      H        0.28960    0.16050    0.37500    1.000
    C26      C        0.27174    0.05200    0.33584    1.000
    C27      C        0.27980    0.96100    0.33020    1.000
    H19      H        0.26520    0.92760    0.30640    1.000
    C28      C        0.30920    0.92070    0.35970    1.000
    H20      H        0.31430    0.85850    0.35610    1.000
    N9       N        0.18378    0.50300    0.27560    1.000
    C29      C        0.21350    0.46960    0.30310    1.000
    H21      H        0.23060    0.51010    0.32140    1.000
    C30      C        0.22140    0.37740    0.30710    1.000
    H22      H        0.24320    0.35580    0.32810    1.000
    C31      C        0.19749    0.31870    0.28040    1.000
    C32      C        0.16540    0.35410    0.25170    1.000
    H23      H        0.14760    0.31520    0.23330    1.000
    C33      C        0.15950    0.44630    0.25030    1.000
    H24      H        0.13750    0.47010    0.23070    1.000
    C34      C        0.19064    0.08660    0.24567    1.000
    N10      N        0.21967    0.04460    0.27261    1.000
    C35      C        0.23968    0.09700    0.30461    1.000
    N11      N        0.23353    0.18480    0.30981    1.000
    C36      C        0.20463    0.21940    0.27990    1.000
    N12      N        0.18138    0.17370    0.24832    1.000
    Zn4      Zn       0.17620    0.36020    0.77620    1.000
    I7       I        0.23950    0.27880    0.80430    1.000
    I8       I        0.13220    0.33300    0.70030    1.000
    Zn5      Zn       0.08740    0.88340    0.08950    1.000
    I9       I        0.02640    0.84660    0.12120    1.000
    I10      I        0.12450    0.77020    0.05240    1.000
    I11      I        0.38580    0.75610    0.40650    1.000
    I12      I        0.34952    0.89130    0.50789    1.000
    Zn6      Zn       0.87390    0.40015    0.43819    1.000
    Zn7      Zn       0.66900    0.85850    0.76610    1.000
    I13      I        0.72939    0.76360    0.78940    1.000
    I14      I        0.62268    0.84160    0.69375    1.000
    Zn8      Zn       0.58014    0.36970    0.09210    1.000
    I15      I        0.52446    0.34796    0.12888    1.000
    I16      I        0.61672    0.25690    0.05498    1.000
    I17      I        0.89537    0.26420    0.39886    1.000
    I18      I        0.85571    0.41340    0.51258    1.000
    N13      N        0.63898    0.84070    0.81800    1.000
    C37      C        0.60680    0.88800    0.81670    1.000
    H25      H        0.60000    0.93330    0.79480    1.000
    C38      C        0.58240    0.87400    0.84630    1.000
    H26      H        0.55860    0.90690    0.84340    1.000
    C39      C        0.59236    0.81320    0.87940    1.000
    C40      C        0.62710    0.76630    0.88120    1.000
    H27      H        0.63530    0.72300    0.90370    1.000
    C41      C        0.64930    0.78210    0.85080    1.000
    H28      H        0.67330    0.75010    0.85300    1.000
    N14      N        0.56851    0.48160    0.04747    1.000
    C42      C        0.53721    0.53350    0.04607    1.000
    H29      H        0.51860    0.51690    0.06310    1.000
    C43      C        0.53083    0.61080    0.02070    1.000
    H30      H        0.50850    0.64730    0.02090    1.000
    C44      C        0.55727    0.63430    0.99497    1.000
    C45      C        0.59010    0.57990    0.99570    1.000
    H31      H        0.60910    0.59430    0.97890    1.000
    C46      C        0.59360    0.50280    0.02260    1.000
    H32      H        0.61520    0.46390    0.02290    1.000
    N15      N        0.42049    0.01250    0.94153    1.000
    C47      C        0.43390    0.99890    0.90610    1.000
    H33      H        0.42130    0.02760    0.87970    1.000
    C48      C        0.46610    0.94350    0.90530    1.000
    H34      H        0.47550    0.93500    0.87890    1.000
    C49      C        0.48378    0.90180    0.94311    1.000
    C50      C        0.46748    0.91020    0.97940    1.000
    H35      H        0.47780    0.87760    0.00550    1.000
    C51      C        0.43561    0.96680    0.97750    1.000
    H36      H        0.42430    0.97310    0.00270    1.000
    C52      C        0.56766    0.79700    0.91174    1.000
    N16      N        0.57468    0.72490    0.93756    1.000
    C53      C        0.55198    0.71620    0.96687    1.000
    N17      N        0.52340    0.77400    0.97197    1.000
    C54      C        0.51773    0.84090    0.94272    1.000
    N18      N        0.53828    0.85620    0.91212    1.000
    N19      N        0.62194    0.44190    0.13974    1.000
    C55      C        0.61590    0.52760    0.14650    1.000
    H37      H        0.59510    0.55730    0.12720    1.000
    C56      C        0.63810    0.57690    0.18030    1.000
    H38      H        0.63330    0.63950    0.18340    1.000
    C57      C        0.66705    0.53440    0.20886    1.000
    C58      C        0.67317    0.44490    0.20230    1.000
    H39      H        0.69290    0.41300    0.22190    1.000
    C59      C        0.65060    0.40100    0.16710    1.000
    H40      H        0.65580    0.33920    0.16230    1.000
    N20      N        0.83098    0.46530    0.39343    1.000
    C60      C        0.82340    0.55110    0.39870    1.000
    H41      H        0.83870    0.58260    0.42280    1.000
    C61      C        0.79409    0.59820    0.37050    1.000
    H42      H        0.78960    0.66050    0.37500    1.000
    C62      C        0.77174    0.55200    0.33584    1.000
    C63      C        0.77980    0.46100    0.33020    1.000
    H43      H        0.76520    0.42760    0.30640    1.000
    C64      C        0.80920    0.42070    0.35970    1.000
    H44      H        0.81430    0.35850    0.35610    1.000
    N21      N        0.68378    0.00300    0.27560    1.000
    C65      C        0.71350    0.96960    0.30310    1.000
    H45      H        0.73060    0.01010    0.32140    1.000
    C66      C        0.72140    0.87740    0.30710    1.000
    H46      H        0.74320    0.85580    0.32810    1.000
    C67      C        0.69749    0.81870    0.28040    1.000
    C68      C        0.66540    0.85410    0.25170    1.000
    H47      H        0.64760    0.81520    0.23330    1.000
    C69      C        0.65950    0.94630    0.25030    1.000
    H48      H        0.63750    0.97010    0.23070    1.000
    C70      C        0.69064    0.58660    0.24567    1.000
    N22      N        0.71967    0.54460    0.27261    1.000
    C71      C        0.73968    0.59700    0.30461    1.000
    N23      N        0.73353    0.68480    0.30981    1.000
    C72      C        0.70463    0.71940    0.27990    1.000
    N24      N        0.68138    0.67370    0.24832    1.000
    Zn9      Zn       0.67620    0.86020    0.77620    1.000
    I19      I        0.73950    0.77880    0.80430    1.000
    I20      I        0.63220    0.83300    0.70030    1.000
    Zn10     Zn       0.58740    0.38340    0.08950    1.000
    I21      I        0.52640    0.34660    0.12120    1.000
    I22      I        0.62450    0.27020    0.05240    1.000
    I23      I        0.88580    0.25610    0.40650    1.000
    I24      I        0.84952    0.39130    0.50789    1.000
    Zn11     Zn       0.37390    0.09985    0.93819    1.000
    Zn12     Zn       0.16900    0.64150    0.26610    1.000
    I25      I        0.22939    0.73640    0.28940    1.000
    I26      I        0.12268    0.65840    0.19375    1.000
    Zn13     Zn       0.08014    0.13030    0.59210    1.000
    I27      I        0.02446    0.15204    0.62888    1.000
    I28      I        0.11672    0.24310    0.55498    1.000
    I29      I        0.39537    0.23580    0.89886    1.000
    I30      I        0.35571    0.08660    0.01258    1.000
    N25      N        0.13898    0.65930    0.31800    1.000
    C73      C        0.10680    0.61200    0.31670    1.000
    H49      H        0.10000    0.56670    0.29480    1.000
    C74      C        0.08240    0.62600    0.34630    1.000
    H50      H        0.05860    0.59310    0.34340    1.000
    C75      C        0.09236    0.68680    0.37940    1.000
    C76      C        0.12710    0.73370    0.38120    1.000
    H51      H        0.13530    0.77700    0.40370    1.000
    C77      C        0.14930    0.71790    0.35080    1.000
    H52      H        0.17330    0.74990    0.35300    1.000
    N26      N        0.06851    0.01840    0.54747    1.000
    C78      C        0.03721    0.96650    0.54607    1.000
    H53      H        0.01860    0.98310    0.56310    1.000
    C79      C        0.03083    0.88920    0.52070    1.000
    H54      H        0.00850    0.85270    0.52090    1.000
    C80      C        0.05727    0.86570    0.49497    1.000
    C81      C        0.09010    0.92010    0.49570    1.000
    H55      H        0.10910    0.90570    0.47890    1.000
    C82      C        0.09360    0.99720    0.52260    1.000
    H56      H        0.11520    0.03610    0.52290    1.000
    N27      N        0.92049    0.48750    0.44153    1.000
    C83      C        0.93390    0.50110    0.40610    1.000
    H57      H        0.92130    0.47240    0.37970    1.000
    C84      C        0.96610    0.55650    0.40530    1.000
    H58      H        0.97550    0.56500    0.37890    1.000
    C85      C        0.98378    0.59820    0.44311    1.000
    C86      C        0.96748    0.58980    0.47940    1.000
    H59      H        0.97780    0.62240    0.50550    1.000
    C87      C        0.93561    0.53320    0.47750    1.000
    H60      H        0.92430    0.52690    0.50270    1.000
    C88      C        0.06766    0.70300    0.41174    1.000
    N28      N        0.07468    0.77510    0.43756    1.000
    C89      C        0.05198    0.78380    0.46687    1.000
    N29      N        0.02340    0.72600    0.47197    1.000
    C90      C        0.01773    0.65910    0.44272    1.000
    N30      N        0.03828    0.64380    0.41212    1.000
    N31      N        0.12194    0.05810    0.63974    1.000
    C91      C        0.11590    0.97240    0.64650    1.000
    H61      H        0.09510    0.94270    0.62720    1.000
    C92      C        0.13810    0.92310    0.68030    1.000
    H62      H        0.13330    0.86050    0.68340    1.000
    C93      C        0.16705    0.96560    0.70886    1.000
    C94      C        0.17317    0.05510    0.70230    1.000
    H63      H        0.19290    0.08700    0.72190    1.000
    C95      C        0.15060    0.09900    0.66710    1.000
    H64      H        0.15580    0.16080    0.66230    1.000
    N32      N        0.33098    0.03470    0.89343    1.000
    C96      C        0.32340    0.94890    0.89870    1.000
    H65      H        0.33870    0.91740    0.92280    1.000
    C97      C        0.29409    0.90180    0.87050    1.000
    H66      H        0.28960    0.83950    0.87500    1.000
    C98      C        0.27174    0.94800    0.83584    1.000
    C99      C        0.27980    0.03900    0.83020    1.000
    H67      H        0.26520    0.07240    0.80640    1.000
    C100     C        0.30920    0.07930    0.85970    1.000
    H68      H        0.31430    0.14150    0.85610    1.000
    N33      N        0.18378    0.49700    0.77560    1.000
    C101     C        0.21350    0.53040    0.80310    1.000
    H69      H        0.23060    0.48990    0.82140    1.000
    C102     C        0.22140    0.62260    0.80710    1.000
    H70      H        0.24320    0.64420    0.82810    1.000
    C103     C        0.19749    0.68130    0.78040    1.000
    C104     C        0.16540    0.64590    0.75170    1.000
    H71      H        0.14760    0.68480    0.73330    1.000
    C105     C        0.15950    0.55370    0.75030    1.000
    H72      H        0.13750    0.52990    0.73070    1.000
    C106     C        0.19064    0.91340    0.74567    1.000
    N34      N        0.21967    0.95540    0.77261    1.000
    C107     C        0.23968    0.90300    0.80461    1.000
    N35      N        0.23353    0.81520    0.80981    1.000
    C108     C        0.20463    0.78060    0.77990    1.000
    N36      N        0.18138    0.82630    0.74832    1.000
    Zn14     Zn       0.17620    0.63980    0.27620    1.000
    I31      I        0.23950    0.72120    0.30430    1.000
    I32      I        0.13220    0.66700    0.20030    1.000
    Zn15     Zn       0.08740    0.11660    0.58950    1.000
    I33      I        0.02640    0.15340    0.62120    1.000
    I34      I        0.12450    0.22980    0.55240    1.000
    I35      I        0.38580    0.24390    0.90650    1.000
    I36      I        0.34952    0.10870    0.00789    1.000
    Zn16     Zn       0.87390    0.59985    0.93819    1.000
    Zn17     Zn       0.66900    0.14150    0.26610    1.000
    I37      I        0.72939    0.23640    0.28940    1.000
    I38      I        0.62268    0.15840    0.19375    1.000
    Zn18     Zn       0.58014    0.63030    0.59210    1.000
    I39      I        0.52446    0.65204    0.62888    1.000
    I40      I        0.61672    0.74310    0.55498    1.000
    I41      I        0.89537    0.73580    0.89886    1.000
    I42      I        0.85571    0.58660    0.01258    1.000
    N37      N        0.63898    0.15930    0.31800    1.000
    C109     C        0.60680    0.11200    0.31670    1.000
    H73      H        0.60000    0.06670    0.29480    1.000
    C110     C        0.58240    0.12600    0.34630    1.000
    H74      H        0.55860    0.09310    0.34340    1.000
    C111     C        0.59236    0.18680    0.37940    1.000
    C112     C        0.62710    0.23370    0.38120    1.000
    H75      H        0.63530    0.27700    0.40370    1.000
    C113     C        0.64930    0.21790    0.35080    1.000
    H76      H        0.67330    0.24990    0.35300    1.000
    N38      N        0.56851    0.51840    0.54747    1.000
    C114     C        0.53721    0.46650    0.54607    1.000
    H77      H        0.51860    0.48310    0.56310    1.000
    C115     C        0.53083    0.38920    0.52070    1.000
    H78      H        0.50850    0.35270    0.52090    1.000
    C116     C        0.55727    0.36570    0.49497    1.000
    C117     C        0.59010    0.42010    0.49570    1.000
    H79      H        0.60910    0.40570    0.47890    1.000
    C118     C        0.59360    0.49720    0.52260    1.000
    H80      H        0.61520    0.53610    0.52290    1.000
    N39      N        0.42049    0.98750    0.44153    1.000
    C119     C        0.43390    0.00110    0.40610    1.000
    H81      H        0.42130    0.97240    0.37970    1.000
    C120     C        0.46610    0.05650    0.40530    1.000
    H82      H        0.47550    0.06500    0.37890    1.000
    C121     C        0.48378    0.09820    0.44311    1.000
    C122     C        0.46748    0.08980    0.47940    1.000
    H83      H        0.47780    0.12240    0.50550    1.000
    C123     C        0.43561    0.03320    0.47750    1.000
    H84      H        0.42430    0.02690    0.50270    1.000
    C124     C        0.56766    0.20300    0.41174    1.000
    N40      N        0.57468    0.27510    0.43756    1.000
    C125     C        0.55198    0.28380    0.46687    1.000
    N41      N        0.52340    0.22600    0.47197    1.000
    C126     C        0.51773    0.15910    0.44272    1.000
    N42      N        0.53828    0.14380    0.41212    1.000
    N43      N        0.62194    0.55810    0.63974    1.000
    C127     C        0.61590    0.47240    0.64650    1.000
    H85      H        0.59510    0.44270    0.62720    1.000
    C128     C        0.63810    0.42310    0.68030    1.000
    H86      H        0.63330    0.36050    0.68340    1.000
    C129     C        0.66705    0.46560    0.70886    1.000
    C130     C        0.67317    0.55510    0.70230    1.000
    H87      H        0.69290    0.58700    0.72190    1.000
    C131     C        0.65060    0.59900    0.66710    1.000
    H88      H        0.65580    0.66080    0.66230    1.000
    N44      N        0.83098    0.53470    0.89343    1.000
    C132     C        0.82340    0.44890    0.89870    1.000
    H89      H        0.83870    0.41740    0.92280    1.000
    C133     C        0.79409    0.40180    0.87050    1.000
    H90      H        0.78960    0.33950    0.87500    1.000
    C134     C        0.77174    0.44800    0.83584    1.000
    C135     C        0.77980    0.53900    0.83020    1.000
    H91      H        0.76520    0.57240    0.80640    1.000
    C136     C        0.80920    0.57930    0.85970    1.000
    H92      H        0.81430    0.64150    0.85610    1.000
    N45      N        0.68378    0.99700    0.77560    1.000
    C137     C        0.71350    0.03040    0.80310    1.000
    H93      H        0.73060    0.98990    0.82140    1.000
    C138     C        0.72140    0.12260    0.80710    1.000
    H94      H        0.74320    0.14420    0.82810    1.000
    C139     C        0.69749    0.18130    0.78040    1.000
    C140     C        0.66540    0.14590    0.75170    1.000
    H95      H        0.64760    0.18480    0.73330    1.000
    C141     C        0.65950    0.05370    0.75030    1.000
    H96      H        0.63750    0.02990    0.73070    1.000
    C142     C        0.69064    0.41340    0.74567    1.000
    N46      N        0.71967    0.45540    0.77261    1.000
    C143     C        0.73968    0.40300    0.80461    1.000
    N47      N        0.73353    0.31520    0.80981    1.000
    C144     C        0.70463    0.28060    0.77990    1.000
    N48      N        0.68138    0.32630    0.74832    1.000
    Zn19     Zn       0.67620    0.13980    0.27620    1.000
    I43      I        0.73950    0.22120    0.30430    1.000
    I44      I        0.63220    0.16700    0.20030    1.000
    Zn20     Zn       0.58740    0.61660    0.58950    1.000
    I45      I        0.52640    0.65340    0.62120    1.000
    I46      I        0.62450    0.72980    0.55240    1.000
    I47      I        0.88580    0.74390    0.90650    1.000
    I48      I        0.84952    0.60870    0.00789    1.000
    Zn21     Zn       0.62610    0.90015    0.06181    1.000
    Zn22     Zn       0.83100    0.35850    0.73390    1.000
    I49      I        0.77061    0.26360    0.71060    1.000
    I50      I        0.87732    0.34160    0.80625    1.000
    Zn23     Zn       0.91986    0.86970    0.40790    1.000
    I51      I        0.97554    0.84796    0.37112    1.000
    I52      I        0.88328    0.75690    0.44502    1.000
    I53      I        0.60463    0.76420    0.10114    1.000
    I54      I        0.64429    0.91340    0.98742    1.000
    N49      N        0.86102    0.34070    0.68200    1.000
    C145     C        0.89320    0.38800    0.68330    1.000
    H97      H        0.90000    0.43330    0.70520    1.000
    C146     C        0.91760    0.37400    0.65370    1.000
    H98      H        0.94140    0.40690    0.65660    1.000
    C147     C        0.90764    0.31320    0.62060    1.000
    C148     C        0.87290    0.26630    0.61880    1.000
    H99      H        0.86470    0.22300    0.59630    1.000
    C149     C        0.85070    0.28210    0.64920    1.000
    H100     H        0.82670    0.25010    0.64700    1.000
    N50      N        0.93149    0.98160    0.45253    1.000
    C150     C        0.96279    0.03350    0.45393    1.000
    H101     H        0.98140    0.01690    0.43690    1.000
    C151     C        0.96917    0.11080    0.47930    1.000
    H102     H        0.99150    0.14730    0.47910    1.000
    C152     C        0.94273    0.13430    0.50503    1.000
    C153     C        0.90990    0.07990    0.50430    1.000
    H103     H        0.89090    0.09430    0.52110    1.000
    C154     C        0.90640    0.00280    0.47740    1.000
    H104     H        0.88480    0.96390    0.47710    1.000
    N51      N        0.07951    0.51250    0.55847    1.000
    C155     C        0.06610    0.49890    0.59390    1.000
    H105     H        0.07870    0.52760    0.62030    1.000
    C156     C        0.03390    0.44350    0.59470    1.000
    H106     H        0.02450    0.43500    0.62110    1.000
    C157     C        0.01622    0.40180    0.55689    1.000
    C158     C        0.03252    0.41020    0.52060    1.000
    H107     H        0.02220    0.37760    0.49450    1.000
    C159     C        0.06439    0.46680    0.52250    1.000
    H108     H        0.07570    0.47310    0.49730    1.000
    C160     C        0.93234    0.29700    0.58826    1.000
    N52      N        0.92532    0.22490    0.56244    1.000
    C161     C        0.94802    0.21620    0.53313    1.000
    N53      N        0.97660    0.27400    0.52803    1.000
    C162     C        0.98227    0.34090    0.55728    1.000
    N54      N        0.96172    0.35620    0.58788    1.000
    N55      N        0.87806    0.94190    0.36026    1.000
    C163     C        0.88410    0.02760    0.35350    1.000
    H109     H        0.90490    0.05730    0.37280    1.000
    C164     C        0.86190    0.07690    0.31970    1.000
    H110     H        0.86670    0.13950    0.31660    1.000
    C165     C        0.83295    0.03440    0.29114    1.000
    C166     C        0.82683    0.94490    0.29770    1.000
    H111     H        0.80710    0.91300    0.27810    1.000
    C167     C        0.84940    0.90100    0.33290    1.000
    H112     H        0.84420    0.83920    0.33770    1.000
    N56      N        0.66902    0.96530    0.10657    1.000
    C168     C        0.67660    0.05110    0.10130    1.000
    H113     H        0.66130    0.08260    0.07720    1.000
    C169     C        0.70591    0.09820    0.12950    1.000
    H114     H        0.71040    0.16050    0.12500    1.000
    C170     C        0.72826    0.05200    0.16416    1.000
    C171     C        0.72020    0.96100    0.16980    1.000
    H115     H        0.73480    0.92760    0.19360    1.000
    C172     C        0.69080    0.92070    0.14030    1.000
    H116     H        0.68570    0.85850    0.14390    1.000
    N57      N        0.81622    0.50300    0.22440    1.000
    C173     C        0.78650    0.46960    0.19690    1.000
    H117     H        0.76940    0.51010    0.17860    1.000
    C174     C        0.77860    0.37740    0.19290    1.000
    H118     H        0.75680    0.35580    0.17190    1.000
    C175     C        0.80251    0.31870    0.21960    1.000
    C176     C        0.83460    0.35410    0.24830    1.000
    H119     H        0.85240    0.31520    0.26670    1.000
    C177     C        0.84050    0.44630    0.24970    1.000
    H120     H        0.86250    0.47010    0.26930    1.000
    C178     C        0.80936    0.08660    0.25433    1.000
    N58      N        0.78033    0.04460    0.22739    1.000
    C179     C        0.76032    0.09700    0.19539    1.000
    N59      N        0.76647    0.18480    0.19019    1.000
    C180     C        0.79537    0.21940    0.22010    1.000
    N60      N        0.81862    0.17370    0.25168    1.000
    Zn24     Zn       0.82380    0.36020    0.72380    1.000
    I55      I        0.76050    0.27880    0.69570    1.000
    I56      I        0.86780    0.33300    0.79970    1.000
    Zn25     Zn       0.91260    0.88340    0.41050    1.000
    I57      I        0.97360    0.84660    0.37880    1.000
    I58      I        0.87550    0.77020    0.44760    1.000
    I59      I        0.61420    0.75610    0.09350    1.000
    I60      I        0.65048    0.89130    0.99211    1.000
    Zn26     Zn       0.12610    0.40015    0.06181    1.000
    Zn27     Zn       0.33100    0.85850    0.73390    1.000
    I61      I        0.27061    0.76360    0.71060    1.000
    I62      I        0.37732    0.84160    0.80625    1.000
    Zn28     Zn       0.41986    0.36970    0.40790    1.000
    I63      I        0.47554    0.34796    0.37112    1.000
    I64      I        0.38328    0.25690    0.44502    1.000
    I65      I        0.10463    0.26420    0.10114    1.000
    I66      I        0.14429    0.41340    0.98742    1.000
    N61      N        0.36102    0.84070    0.68200    1.000
    C181     C        0.39320    0.88800    0.68330    1.000
    H121     H        0.40000    0.93330    0.70520    1.000
    C182     C        0.41760    0.87400    0.65370    1.000
    H122     H        0.44140    0.90690    0.65660    1.000
    C183     C        0.40764    0.81320    0.62060    1.000
    C184     C        0.37290    0.76630    0.61880    1.000
    H123     H        0.36470    0.72300    0.59630    1.000
    C185     C        0.35070    0.78210    0.64920    1.000
    H124     H        0.32670    0.75010    0.64700    1.000
    N62      N        0.43149    0.48160    0.45253    1.000
    C186     C        0.46279    0.53350    0.45393    1.000
    H125     H        0.48140    0.51690    0.43690    1.000
    C187     C        0.46917    0.61080    0.47930    1.000
    H126     H        0.49150    0.64730    0.47910    1.000
    C188     C        0.44273    0.63430    0.50503    1.000
    C189     C        0.40990    0.57990    0.50430    1.000
    H127     H        0.39090    0.59430    0.52110    1.000
    C190     C        0.40640    0.50280    0.47740    1.000
    H128     H        0.38480    0.46390    0.47710    1.000
    N63      N        0.57951    0.01250    0.55847    1.000
    C191     C        0.56610    0.99890    0.59390    1.000
    H129     H        0.57870    0.02760    0.62030    1.000
    C192     C        0.53390    0.94350    0.59470    1.000
    H130     H        0.52450    0.93500    0.62110    1.000
    C193     C        0.51622    0.90180    0.55689    1.000
    C194     C        0.53252    0.91020    0.52060    1.000
    H131     H        0.52220    0.87760    0.49450    1.000
    C195     C        0.56439    0.96680    0.52250    1.000
    H132     H        0.57570    0.97310    0.49730    1.000
    C196     C        0.43234    0.79700    0.58826    1.000
    N64      N        0.42532    0.72490    0.56244    1.000
    C197     C        0.44802    0.71620    0.53313    1.000
    N65      N        0.47660    0.77400    0.52803    1.000
    C198     C        0.48227    0.84090    0.55728    1.000
    N66      N        0.46172    0.85620    0.58788    1.000
    N67      N        0.37806    0.44190    0.36026    1.000
    C199     C        0.38410    0.52760    0.35350    1.000
    H133     H        0.40490    0.55730    0.37280    1.000
    C200     C        0.36190    0.57690    0.31970    1.000
    H134     H        0.36670    0.63950    0.31660    1.000
    C201     C        0.33295    0.53440    0.29114    1.000
    C202     C        0.32683    0.44490    0.29770    1.000
    H135     H        0.30710    0.41300    0.27810    1.000
    C203     C        0.34940    0.40100    0.33290    1.000
    H136     H        0.34420    0.33920    0.33770    1.000
    N68      N        0.16902    0.46530    0.10657    1.000
    C204     C        0.17660    0.55110    0.10130    1.000
    H137     H        0.16130    0.58260    0.07720    1.000
    C205     C        0.20591    0.59820    0.12950    1.000
    H138     H        0.21040    0.66050    0.12500    1.000
    C206     C        0.22826    0.55200    0.16416    1.000
    C207     C        0.22020    0.46100    0.16980    1.000
    H139     H        0.23480    0.42760    0.19360    1.000
    C208     C        0.19080    0.42070    0.14030    1.000
    H140     H        0.18570    0.35850    0.14390    1.000
    N69      N        0.31622    0.00300    0.22440    1.000
    C209     C        0.28650    0.96960    0.19690    1.000
    H141     H        0.26940    0.01010    0.17860    1.000
    C210     C        0.27860    0.87740    0.19290    1.000
    H142     H        0.25680    0.85580    0.17190    1.000
    C211     C        0.30251    0.81870    0.21960    1.000
    C212     C        0.33460    0.85410    0.24830    1.000
    H143     H        0.35240    0.81520    0.26670    1.000
    C213     C        0.34050    0.94630    0.24970    1.000
    H144     H        0.36250    0.97010    0.26930    1.000
    C214     C        0.30936    0.58660    0.25433    1.000
    N70      N        0.28033    0.54460    0.22739    1.000
    C215     C        0.26032    0.59700    0.19539    1.000
    N71      N        0.26647    0.68480    0.19019    1.000
    C216     C        0.29537    0.71940    0.22010    1.000
    N72      N        0.31862    0.67370    0.25168    1.000
    Zn29     Zn       0.32380    0.86020    0.72380    1.000
    I67      I        0.26050    0.77880    0.69570    1.000
    I68      I        0.36780    0.83300    0.79970    1.000
    Zn30     Zn       0.41260    0.38340    0.41050    1.000
    I69      I        0.47360    0.34660    0.37880    1.000
    I70      I        0.37550    0.27020    0.44760    1.000
    I71      I        0.11420    0.25610    0.09350    1.000
    I72      I        0.15048    0.39130    0.99211    1.000
    Zn31     Zn       0.62610    0.09985    0.56181    1.000
    Zn32     Zn       0.83100    0.64150    0.23390    1.000
    I73      I        0.77061    0.73640    0.21060    1.000
    I74      I        0.87732    0.65840    0.30625    1.000
    Zn33     Zn       0.91986    0.13030    0.90790    1.000
    I75      I        0.97554    0.15204    0.87112    1.000
    I76      I        0.88328    0.24310    0.94502    1.000
    I77      I        0.60463    0.23580    0.60114    1.000
    I78      I        0.64429    0.08660    0.48742    1.000
    N73      N        0.86102    0.65930    0.18200    1.000
    C217     C        0.89320    0.61200    0.18330    1.000
    H145     H        0.90000    0.56670    0.20520    1.000
    C218     C        0.91760    0.62600    0.15370    1.000
    H146     H        0.94140    0.59310    0.15660    1.000
    C219     C        0.90764    0.68680    0.12060    1.000
    C220     C        0.87290    0.73370    0.11880    1.000
    H147     H        0.86470    0.77700    0.09630    1.000
    C221     C        0.85070    0.71790    0.14920    1.000
    H148     H        0.82670    0.74990    0.14700    1.000
    N74      N        0.93149    0.01840    0.95253    1.000
    C222     C        0.96279    0.96650    0.95393    1.000
    H149     H        0.98140    0.98310    0.93690    1.000
    C223     C        0.96917    0.88920    0.97930    1.000
    H150     H        0.99150    0.85270    0.97910    1.000
    C224     C        0.94273    0.86570    0.00503    1.000
    C225     C        0.90990    0.92010    0.00430    1.000
    H151     H        0.89090    0.90570    0.02110    1.000
    C226     C        0.90640    0.99720    0.97740    1.000
    H152     H        0.88480    0.03610    0.97710    1.000
    N75      N        0.07951    0.48750    0.05847    1.000
    C227     C        0.06610    0.50110    0.09390    1.000
    H153     H        0.07870    0.47240    0.12030    1.000
    C228     C        0.03390    0.55650    0.09470    1.000
    H154     H        0.02450    0.56500    0.12110    1.000
    C229     C        0.01622    0.59820    0.05689    1.000
    C230     C        0.03252    0.58980    0.02060    1.000
    H155     H        0.02220    0.62240    0.99450    1.000
    C231     C        0.06439    0.53320    0.02250    1.000
    H156     H        0.07570    0.52690    0.99730    1.000
    C232     C        0.93234    0.70300    0.08826    1.000
    N76      N        0.92532    0.77510    0.06244    1.000
    C233     C        0.94802    0.78380    0.03313    1.000
    N77      N        0.97660    0.72600    0.02803    1.000
    C234     C        0.98227    0.65910    0.05728    1.000
    N78      N        0.96172    0.64380    0.08788    1.000
    N79      N        0.87806    0.05810    0.86026    1.000
    C235     C        0.88410    0.97240    0.85350    1.000
    H157     H        0.90490    0.94270    0.87280    1.000
    C236     C        0.86190    0.92310    0.81970    1.000
    H158     H        0.86670    0.86050    0.81660    1.000
    C237     C        0.83295    0.96560    0.79114    1.000
    C238     C        0.82683    0.05510    0.79770    1.000
    H159     H        0.80710    0.08700    0.77810    1.000
    C239     C        0.84940    0.09900    0.83290    1.000
    H160     H        0.84420    0.16080    0.83770    1.000
    N80      N        0.66902    0.03470    0.60657    1.000
    C240     C        0.67660    0.94890    0.60130    1.000
    H161     H        0.66130    0.91740    0.57720    1.000
    C241     C        0.70591    0.90180    0.62950    1.000
    H162     H        0.71040    0.83950    0.62500    1.000
    C242     C        0.72826    0.94800    0.66416    1.000
    C243     C        0.72020    0.03900    0.66980    1.000
    H163     H        0.73480    0.07240    0.69360    1.000
    C244     C        0.69080    0.07930    0.64030    1.000
    H164     H        0.68570    0.14150    0.64390    1.000
    N81      N        0.81622    0.49700    0.72440    1.000
    C245     C        0.78650    0.53040    0.69690    1.000
    H165     H        0.76940    0.48990    0.67860    1.000
    C246     C        0.77860    0.62260    0.69290    1.000
    H166     H        0.75680    0.64420    0.67190    1.000
    C247     C        0.80251    0.68130    0.71960    1.000
    C248     C        0.83460    0.64590    0.74830    1.000
    H167     H        0.85240    0.68480    0.76670    1.000
    C249     C        0.84050    0.55370    0.74970    1.000
    H168     H        0.86250    0.52990    0.76930    1.000
    C250     C        0.80936    0.91340    0.75433    1.000
    N82      N        0.78033    0.95540    0.72739    1.000
    C251     C        0.76032    0.90300    0.69539    1.000
    N83      N        0.76647    0.81520    0.69019    1.000
    C252     C        0.79537    0.78060    0.72010    1.000
    N84      N        0.81862    0.82630    0.75168    1.000
    Zn34     Zn       0.82380    0.63980    0.22380    1.000
    I79      I        0.76050    0.72120    0.19570    1.000
    I80      I        0.86780    0.66700    0.29970    1.000
    Zn35     Zn       0.91260    0.11660    0.91050    1.000
    I81      I        0.97360    0.15340    0.87880    1.000
    I82      I        0.87550    0.22980    0.94760    1.000
    I83      I        0.61420    0.24390    0.59350    1.000
    I84      I        0.65048    0.10870    0.49211    1.000
    Zn36     Zn       0.12610    0.59985    0.56181    1.000
    Zn37     Zn       0.33100    0.14150    0.23390    1.000
    I85      I        0.27061    0.23640    0.21060    1.000
    I86      I        0.37732    0.15840    0.30625    1.000
    Zn38     Zn       0.41986    0.63030    0.90790    1.000
    I87      I        0.47554    0.65204    0.87112    1.000
    I88      I        0.38328    0.74310    0.94502    1.000
    I89      I        0.10463    0.73580    0.60114    1.000
    I90      I        0.14429    0.58660    0.48742    1.000
    N85      N        0.36102    0.15930    0.18200    1.000
    C253     C        0.39320    0.11200    0.18330    1.000
    H169     H        0.40000    0.06670    0.20520    1.000
    C254     C        0.41760    0.12600    0.15370    1.000
    H170     H        0.44140    0.09310    0.15660    1.000
    C255     C        0.40764    0.18680    0.12060    1.000
    C256     C        0.37290    0.23370    0.11880    1.000
    H171     H        0.36470    0.27700    0.09630    1.000
    C257     C        0.35070    0.21790    0.14920    1.000
    H172     H        0.32670    0.24990    0.14700    1.000
    N86      N        0.43149    0.51840    0.95253    1.000
    C258     C        0.46279    0.46650    0.95393    1.000
    H173     H        0.48140    0.48310    0.93690    1.000
    C259     C        0.46917    0.38920    0.97930    1.000
    H174     H        0.49150    0.35270    0.97910    1.000
    C260     C        0.44273    0.36570    0.00503    1.000
    C261     C        0.40990    0.42010    0.00430    1.000
    H175     H        0.39090    0.40570    0.02110    1.000
    C262     C        0.40640    0.49720    0.97740    1.000
    H176     H        0.38480    0.53610    0.97710    1.000
    N87      N        0.57951    0.98750    0.05847    1.000
    C263     C        0.56610    0.00110    0.09390    1.000
    H177     H        0.57870    0.97240    0.12030    1.000
    C264     C        0.53390    0.05650    0.09470    1.000
    H178     H        0.52450    0.06500    0.12110    1.000
    C265     C        0.51622    0.09820    0.05689    1.000
    C266     C        0.53252    0.08980    0.02060    1.000
    H179     H        0.52220    0.12240    0.99450    1.000
    C267     C        0.56439    0.03320    0.02250    1.000
    H180     H        0.57570    0.02690    0.99730    1.000
    C268     C        0.43234    0.20300    0.08826    1.000
    N88      N        0.42532    0.27510    0.06244    1.000
    C269     C        0.44802    0.28380    0.03313    1.000
    N89      N        0.47660    0.22600    0.02803    1.000
    C270     C        0.48227    0.15910    0.05728    1.000
    N90      N        0.46172    0.14380    0.08788    1.000
    N91      N        0.37806    0.55810    0.86026    1.000
    C271     C        0.38410    0.47240    0.85350    1.000
    H181     H        0.40490    0.44270    0.87280    1.000
    C272     C        0.36190    0.42310    0.81970    1.000
    H182     H        0.36670    0.36050    0.81660    1.000
    C273     C        0.33295    0.46560    0.79114    1.000
    C274     C        0.32683    0.55510    0.79770    1.000
    H183     H        0.30710    0.58700    0.77810    1.000
    C275     C        0.34940    0.59900    0.83290    1.000
    H184     H        0.34420    0.66080    0.83770    1.000
    N92      N        0.16902    0.53470    0.60657    1.000
    C276     C        0.17660    0.44890    0.60130    1.000
    H185     H        0.16130    0.41740    0.57720    1.000
    C277     C        0.20591    0.40180    0.62950    1.000
    H186     H        0.21040    0.33950    0.62500    1.000
    C278     C        0.22826    0.44800    0.66416    1.000
    C279     C        0.22020    0.53900    0.66980    1.000
    H187     H        0.23480    0.57240    0.69360    1.000
    C280     C        0.19080    0.57930    0.64030    1.000
    H188     H        0.18570    0.64150    0.64390    1.000
    N93      N        0.31622    0.99700    0.72440    1.000
    C281     C        0.28650    0.03040    0.69690    1.000
    H189     H        0.26940    0.98990    0.67860    1.000
    C282     C        0.27860    0.12260    0.69290    1.000
    H190     H        0.25680    0.14420    0.67190    1.000
    C283     C        0.30251    0.18130    0.71960    1.000
    C284     C        0.33460    0.14590    0.74830    1.000
    H191     H        0.35240    0.18480    0.76670    1.000
    C285     C        0.34050    0.05370    0.74970    1.000
    H192     H        0.36250    0.02990    0.76930    1.000
    C286     C        0.30936    0.41340    0.75433    1.000
    N94      N        0.28033    0.45540    0.72739    1.000
    C287     C        0.26032    0.40300    0.69539    1.000
    N95      N        0.26647    0.31520    0.69019    1.000
    C288     C        0.29537    0.28060    0.72010    1.000
    N96      N        0.31862    0.32630    0.75168    1.000
    Zn39     Zn       0.32380    0.13980    0.22380    1.000
    I91      I        0.26050    0.22120    0.19570    1.000
    I92      I        0.36780    0.16700    0.29970    1.000
    Zn40     Zn       0.41260    0.61660    0.91050    1.000
    I93      I        0.47360    0.65340    0.87880    1.000
    I94      I        0.37550    0.72980    0.94760    1.000
    I95      I        0.11420    0.74390    0.59350    1.000
    I96      I        0.15048    0.60870    0.49211    1.000
