# CIF file generated by openbabel 3.1.0, see https://openbabel.org
data_I
_chemical_name_common 'image0'
_cell_length_a 12.335
_cell_length_b 12.335
_cell_length_c 5.265
_cell_angle_alpha 90
_cell_angle_beta 90
_cell_angle_gamma 90
_space_group_name_H-M_alt 'P 1'
_space_group_name_Hall 'P 1'
loop_
    _symmetry_equiv_pos_as_xyz
    x,y,z
loop_
    _atom_site_label
    _atom_site_type_symbol
    _atom_site_fract_x
    _atom_site_fract_y
    _atom_site_fract_z
    _atom_site_occupancy
    C1       C        0.29540    0.79430    0.71950    1.000
    H1       H        0.26330    0.80320    0.54640    1.000
    C2       C        0.34480    0.68140    0.73930    1.000
    H2       H        0.38240    0.66140    0.58000    1.000
    H3       H        0.28830    0.62650    0.77610    1.000
    C3       C        0.47560    0.83060    0.90080    1.000
    H4       H        0.54230    0.82850    0.79270    1.000
    C4       C        0.49840    0.89520    0.14020    1.000
    C5       C        0.20620    0.81340    0.91840    1.000
    N1       N        0.38370    0.87410    0.75060    1.000
    H5       H        0.40200    0.89700    0.61600    1.000
    O1       O        0.58324    0.87131    0.25700    1.000
    O2       O        0.43148    0.96677    0.21120    1.000
    O3       O        0.20776    0.89911    0.04650    1.000
    O4       O        0.13228    0.74314    0.94200    1.000
    S1       S        0.43970    0.69230    0.99992    1.000
    Co1      Co       0.32124    0.01546    0.94137    1.000
    C6       C        0.70460    0.20570    0.21950    1.000
    H6       H        0.73670    0.19680    0.04640    1.000
    C7       C        0.65520    0.31860    0.23930    1.000
    H7       H        0.61760    0.33860    0.08000    1.000
    H8       H        0.71170    0.37350    0.27610    1.000
    C8       C        0.52440    0.16940    0.40080    1.000
    H9       H        0.45770    0.17150    0.29270    1.000
    C9       C        0.50160    0.10480    0.64020    1.000
    C10      C        0.79380    0.18660    0.41840    1.000
    N2       N        0.61630    0.12590    0.25060    1.000
    H10      H        0.59800    0.10300    0.11600    1.000
    O5       O        0.41676    0.12869    0.75700    1.000
    O6       O        0.56852    0.03323    0.71120    1.000
    O7       O        0.79224    0.10089    0.54650    1.000
    O8       O        0.86772    0.25686    0.44200    1.000
    S2       S        0.56030    0.30770    0.49992    1.000
    Co2      Co       0.67876    0.98454    0.44137    1.000
    C11      C        0.20570    0.29540    0.96950    1.000
    H11      H        0.19680    0.26330    0.79640    1.000
    C12      C        0.31860    0.34480    0.98930    1.000
    H12      H        0.33860    0.38240    0.83000    1.000
    H13      H        0.37350    0.28830    0.02610    1.000
    C13      C        0.16940    0.47560    0.15080    1.000
    H14      H        0.17150    0.54230    0.04270    1.000
    C14      C        0.10480    0.49840    0.39020    1.000
    C15      C        0.18660    0.20620    0.16840    1.000
    N3       N        0.12590    0.38370    0.00060    1.000
    H15      H        0.10300    0.40200    0.86600    1.000
    O9       O        0.12869    0.58324    0.50700    1.000
    O10      O        0.03323    0.43148    0.46120    1.000
    O11      O        0.10089    0.20776    0.29650    1.000
    O12      O        0.25686    0.13228    0.19200    1.000
    S3       S        0.30770    0.43970    0.24992    1.000
    Co3      Co       0.98454    0.32124    0.19137    1.000
    C16      C        0.79430    0.70460    0.46950    1.000
    H16      H        0.80320    0.73670    0.29640    1.000
    C17      C        0.68140    0.65520    0.48930    1.000
    H17      H        0.66140    0.61760    0.33000    1.000
    H18      H        0.62650    0.71170    0.52610    1.000
    C18      C        0.83060    0.52440    0.65080    1.000
    H19      H        0.82850    0.45770    0.54270    1.000
    C19      C        0.89520    0.50160    0.89020    1.000
    C20      C        0.81340    0.79380    0.66840    1.000
    N4       N        0.87410    0.61630    0.50060    1.000
    H20      H        0.89700    0.59800    0.36600    1.000
    O13      O        0.87131    0.41676    0.00700    1.000
    O14      O        0.96677    0.56852    0.96120    1.000
    O15      O        0.89911    0.79224    0.79650    1.000
    O16      O        0.74314    0.86772    0.69200    1.000
    S4       S        0.69230    0.56030    0.74992    1.000
    Co4      Co       0.01546    0.67876    0.69137    1.000
