# CIF file generated by openbabel 3.1.0, see https://openbabel.org
data_I
_chemical_name_common 'image0'
_cell_length_a 20.4051
_cell_length_b 16.4969
_cell_length_c 9.3469
_cell_angle_alpha 90
_cell_angle_beta 94.1221
_cell_angle_gamma 90
_space_group_name_H-M_alt 'P 1'
_space_group_name_Hall 'P 1'
loop_
    _symmetry_equiv_pos_as_xyz
    x,y,z
loop_
    _atom_site_label
    _atom_site_type_symbol
    _atom_site_fract_x
    _atom_site_fract_y
    _atom_site_fract_z
    _atom_site_occupancy
    O1       O        0.31153    0.17296    0.40871    1.000
    O2       O        0.18491    0.16981    0.62729    1.000
    O3       O        0.18445    0.17090    0.38810    1.000
    O4       O        0.32059    0.17510    0.64922    1.000
    C1       C        0.15819    0.14783    0.50369    1.000
    C2       C        0.10037    0.09762    0.48581    1.000
    C3       C        0.06680    0.06204    0.59893    1.000
    H1       H        0.08322    0.07594    0.70853    1.000
    C4       C        0.39476    0.05575    0.37775    1.000
    H2       H        0.35440    0.06846    0.30069    1.000
    C5       C        0.97776    0.97445    0.68183    1.000
    H3       H        0.99286    0.98845    0.79095    1.000
    C6       C        0.01163    0.00879    0.57092    1.000
    H4       H        0.33828    0.30293    0.14422    1.000
    H5       H        0.34104    0.19660    0.89492    1.000
    C7       C        0.34182    0.15043    0.52833    1.000
    C8       C        0.39611    0.09175    0.51464    1.000
    C9       C        0.45174    0.07328    0.60905    1.000
    H6       H        0.45697    0.10317    0.71232    1.000
    C10      C        0.07688    0.07689    0.34568    1.000
    H7       H        0.10130    0.10046    0.25600    1.000
    C11      C        0.44484    0.00335    0.33706    1.000
    H8       H        0.44335    0.98140    0.22909    1.000
    C12      C        0.50173    0.01785    0.56855    1.000
    C13      C        0.21110    0.17773    0.08085    1.000
    H9       H        0.23459    0.12142    0.12470    1.000
    H10      H        0.15982    0.17498    0.11061    1.000
    C14      C        0.21210    0.17814    0.90965    1.000
    H11      H        0.16082    0.17680    0.86328    1.000
    H12      H        0.23456    0.12145    0.87236    1.000
    O5       O        0.68847    0.67296    0.59129    1.000
    O6       O        0.81509    0.66981    0.37271    1.000
    O7       O        0.81555    0.67090    0.61190    1.000
    O8       O        0.67941    0.67510    0.35078    1.000
    C15      C        0.84181    0.64783    0.49631    1.000
    C16      C        0.89963    0.59762    0.51419    1.000
    C17      C        0.93320    0.56204    0.40107    1.000
    H13      H        0.91678    0.57594    0.29147    1.000
    C18      C        0.60524    0.55575    0.62225    1.000
    H14      H        0.64560    0.56846    0.69931    1.000
    C19      C        0.02224    0.47445    0.31817    1.000
    H15      H        0.00714    0.48845    0.20905    1.000
    C20      C        0.98837    0.50879    0.42908    1.000
    H16      H        0.66172    0.80293    0.85578    1.000
    H17      H        0.65896    0.69660    0.10508    1.000
    C21      C        0.65818    0.65043    0.47167    1.000
    C22      C        0.60389    0.59175    0.48536    1.000
    C23      C        0.54826    0.57328    0.39095    1.000
    H18      H        0.54303    0.60317    0.28768    1.000
    C24      C        0.92312    0.57689    0.65432    1.000
    H19      H        0.89870    0.60046    0.74400    1.000
    C25      C        0.55516    0.50335    0.66294    1.000
    H20      H        0.55665    0.48140    0.77091    1.000
    C26      C        0.49827    0.51785    0.43145    1.000
    C27      C        0.78890    0.67773    0.91915    1.000
    H21      H        0.76541    0.62142    0.87530    1.000
    H22      H        0.84018    0.67498    0.88939    1.000
    C28      C        0.78790    0.67814    0.09035    1.000
    H23      H        0.83918    0.67680    0.13672    1.000
    H24      H        0.76544    0.62145    0.12764    1.000
    O9       O        0.68847    0.82704    0.59129    1.000
    O10      O        0.81509    0.83019    0.37271    1.000
    O11      O        0.81555    0.82910    0.61190    1.000
    O12      O        0.67941    0.82490    0.35078    1.000
    C29      C        0.84181    0.85217    0.49631    1.000
    C30      C        0.89963    0.90238    0.51419    1.000
    C31      C        0.93320    0.93796    0.40107    1.000
    H25      H        0.91678    0.92406    0.29147    1.000
    C32      C        0.60524    0.94425    0.62225    1.000
    H26      H        0.64560    0.93154    0.69931    1.000
    C33      C        0.02224    0.02555    0.31817    1.000
    H27      H        0.00714    0.01155    0.20905    1.000
    C34      C        0.98837    0.99121    0.42908    1.000
    H28      H        0.66172    0.69707    0.85578    1.000
    H29      H        0.65896    0.80340    0.10508    1.000
    C35      C        0.65818    0.84957    0.47167    1.000
    C36      C        0.60389    0.90825    0.48536    1.000
    C37      C        0.54826    0.92672    0.39095    1.000
    H30      H        0.54303    0.89683    0.28768    1.000
    C38      C        0.92312    0.92311    0.65432    1.000
    H31      H        0.89870    0.89954    0.74400    1.000
    C39      C        0.55516    0.99665    0.66294    1.000
    H32      H        0.55665    0.01860    0.77091    1.000
    C40      C        0.49827    0.98215    0.43145    1.000
    C41      C        0.78890    0.82227    0.91915    1.000
    H33      H        0.76541    0.87858    0.87530    1.000
    H34      H        0.84018    0.82502    0.88939    1.000
    C42      C        0.78790    0.82186    0.09035    1.000
    H35      H        0.83918    0.82320    0.13672    1.000
    H36      H        0.76544    0.87855    0.12764    1.000
    O13      O        0.31153    0.32704    0.40871    1.000
    O14      O        0.18491    0.33019    0.62729    1.000
    O15      O        0.18445    0.32910    0.38810    1.000
    O16      O        0.32059    0.32490    0.64922    1.000
    C43      C        0.15819    0.35217    0.50369    1.000
    C44      C        0.10037    0.40238    0.48581    1.000
    C45      C        0.06680    0.43796    0.59893    1.000
    H37      H        0.08322    0.42406    0.70853    1.000
    C46      C        0.39476    0.44425    0.37775    1.000
    H38      H        0.35440    0.43154    0.30069    1.000
    C47      C        0.97776    0.52555    0.68183    1.000
    H39      H        0.99286    0.51155    0.79095    1.000
    C48      C        0.01163    0.49121    0.57092    1.000
    H40      H        0.33828    0.19707    0.14422    1.000
    H41      H        0.34104    0.30340    0.89492    1.000
    C49      C        0.34182    0.34957    0.52833    1.000
    C50      C        0.39611    0.40825    0.51464    1.000
    C51      C        0.45174    0.42672    0.60905    1.000
    H42      H        0.45697    0.39683    0.71232    1.000
    C52      C        0.07688    0.42311    0.34568    1.000
    H43      H        0.10130    0.39954    0.25600    1.000
    C53      C        0.44484    0.49665    0.33706    1.000
    H44      H        0.44335    0.51860    0.22909    1.000
    C54      C        0.50173    0.48215    0.56855    1.000
    C55      C        0.21110    0.32227    0.08085    1.000
    H45      H        0.23459    0.37858    0.12470    1.000
    H46      H        0.15982    0.32502    0.11061    1.000
    C56      C        0.21210    0.32186    0.90965    1.000
    H47      H        0.16082    0.32320    0.86328    1.000
    H48      H        0.23456    0.37855    0.87236    1.000
    Ni1      Ni       0.25177    0.25000    0.63725    1.000
    Ni2      Ni       0.25009    0.25000    0.39237    1.000
    N1       N        0.24650    0.25000    0.85199    1.000
    N2       N        0.24362    0.25000    0.15064    1.000
    C57      C        0.31115    0.25000    0.09954    1.000
    C58      C        0.31301    0.25000    0.92841    1.000
    Ni3      Ni       0.74823    0.75000    0.36275    1.000
    Ni4      Ni       0.74991    0.75000    0.60763    1.000
    N3       N        0.75350    0.75000    0.14801    1.000
    N4       N        0.75638    0.75000    0.84936    1.000
    C59      C        0.68885    0.75000    0.90046    1.000
    C60      C        0.68699    0.75000    0.07159    1.000
