# CIF file generated by openbabel 3.1.0, see https://openbabel.org
data_I
_chemical_name_common 'image0'
_cell_length_a 8.2293
_cell_length_b 9.7386
_cell_length_c 9.7543
_cell_angle_alpha 60.741
_cell_angle_beta 72.357
_cell_angle_gamma 84.666
_space_group_name_H-M_alt 'P 1'
_space_group_name_Hall 'P 1'
loop_
    _symmetry_equiv_pos_as_xyz
    x,y,z
loop_
    _atom_site_label
    _atom_site_type_symbol
    _atom_site_fract_x
    _atom_site_fract_y
    _atom_site_fract_z
    _atom_site_occupancy
    Y1       Y        0.67040    0.84130    0.78680    1.000
    O1       O        0.69020    0.90680    0.98810    1.000
    O2       O        0.47000    0.66050    0.03690    1.000
    O3       O        0.88170    0.82840    0.56140    1.000
    O4       O        0.56020    0.00820    0.15320    1.000
    O5       O        0.46320    0.81200    0.67320    1.000
    O6       O        0.08690    0.97200    0.32890    1.000
    O7       O        0.32980    0.42230    0.18110    1.000
    O8       O        0.34040    0.92170    0.47020    1.000
    C1       C        0.44300    0.92350    0.54110    1.000
    C2       C        0.57290    0.97600    0.03920    1.000
    C3       C        0.99290    0.94350    0.46740    1.000
    C4       C        0.44190    0.52400    0.06350    1.000
    Y2       Y        0.32960    0.15870    0.21320    1.000
    O9       O        0.30980    0.09320    0.01190    1.000
    O10      O        0.53000    0.33950    0.96310    1.000
    O11      O        0.11830    0.17160    0.43860    1.000
    O12      O        0.43980    0.99180    0.84680    1.000
    O13      O        0.53680    0.18800    0.32680    1.000
    O14      O        0.91310    0.02800    0.67110    1.000
    O15      O        0.67020    0.57770    0.81890    1.000
    O16      O        0.65960    0.07830    0.52980    1.000
    C5       C        0.55700    0.07650    0.45890    1.000
    C6       C        0.42710    0.02400    0.96080    1.000
    C7       C        0.00710    0.05650    0.53260    1.000
    C8       C        0.55810    0.47600    0.93650    1.000
    N1       N        0.98780    0.36550    0.65330    1.000
    C9       C        0.83380    0.42210    0.58920    1.000
    C10      C        0.15040    0.40860    0.51840    1.000
    C11      C        0.29990    0.35000    0.58140    1.000
    H1       H        0.99220    0.40810    0.71590    1.000
    H2       H        0.97540    0.26000    0.71720    1.000
    H3       H        0.82300    0.36950    0.52950    1.000
    H4       H        0.73100    0.39430    0.68140    1.000
    H5       H        0.14400    0.35840    0.45400    1.000
    H6       H        0.28370    0.23770    0.65180    1.000
    H7       H        0.40150    0.37470    0.49060    1.000
    H8       H        0.31130    0.39950    0.64260    1.000
    N2       N        0.01220    0.63450    0.34670    1.000
    C12      C        0.16620    0.57790    0.41080    1.000
    C13      C        0.84960    0.59140    0.48160    1.000
    C14      C        0.70010    0.65000    0.41860    1.000
    H9       H        0.00780    0.59190    0.28410    1.000
    H10      H        0.02460    0.74000    0.28280    1.000
    H11      H        0.17700    0.63050    0.47050    1.000
    H12      H        0.26900    0.60570    0.31860    1.000
    H13      H        0.85600    0.64160    0.54600    1.000
    H14      H        0.71630    0.76230    0.34820    1.000
    H15      H        0.59850    0.62530    0.50940    1.000
    H16      H        0.68870    0.60050    0.35740    1.000
