# CIF file generated by openbabel 3.1.0, see https://openbabel.org
data_I
_chemical_name_common 'image0'
_cell_length_a 14.099
_cell_length_b 10.997
_cell_length_c 21.865
_cell_angle_alpha 90
_cell_angle_beta 93.971
_cell_angle_gamma 90
_space_group_name_H-M_alt 'P 1'
_space_group_name_Hall 'P 1'
loop_
    _symmetry_equiv_pos_as_xyz
    x,y,z
loop_
    _atom_site_label
    _atom_site_type_symbol
    _atom_site_fract_x
    _atom_site_fract_y
    _atom_site_fract_z
    _atom_site_occupancy
    Zn1      Zn       0.82008    0.29753    0.08706    1.000
    O1       O        0.63450    0.47890    0.07440    1.000
    N1       N        0.96620    0.29660    0.08920    1.000
    C1       C        0.71430    0.53290    0.07990    1.000
    Zn2      Zn       0.61069    0.29709    0.07720    1.000
    O2       O        0.79170    0.48080    0.08730    1.000
    N2       N        0.46650    0.29670    0.08140    1.000
    C2       C        0.71170    0.66970    0.08020    1.000
    O3       O        0.63250    0.11380    0.07780    1.000
    C3       C        0.79490    0.73730    0.08790    1.000
    H1       H        0.85250    0.69620    0.09340    1.000
    O4       O        0.78980    0.11470    0.08370    1.000
    C4       C        0.62740    0.73420    0.07320    1.000
    H2       H        0.57020    0.69210    0.06800    1.000
    O5       O        0.64810    0.29900    0.16940    1.000
    C5       C        0.71200    0.92610    0.07930    1.000
    O6       O        0.80800    0.28880    0.17890    1.000
    C6       C        0.62640    0.85920    0.07360    1.000
    H3       H        0.56860    0.90020    0.07010    1.000
    O7       O        0.63300    0.21060    0.48450    1.000
    C7       C        0.79570    0.86160    0.08760    1.000
    H4       H        0.85320    0.90290    0.09300    1.000
    O8       O        0.79420    0.19690    0.49230    1.000
    C8       C        0.71160    0.06220    0.07930    1.000
    C9       C        0.72490    0.28660    0.20180    1.000
    C10      C        0.72470    0.26760    0.26730    1.000
    C11      C        0.80520    0.23510    0.30340    1.000
    H5       H        0.86230    0.22400    0.28530    1.000
    C12      C        0.80240    0.21880    0.36510    1.000
    H6       H        0.85810    0.19880    0.38810    1.000
    C13      C        0.71690    0.23160    0.39530    1.000
    C14      C        0.63680    0.26280    0.35820    1.000
    H7       H        0.57970    0.27370    0.37630    1.000
    C15      C        0.63810    0.27830    0.29590    1.000
    H8       H        0.58210    0.29570    0.27250    1.000
    C16      C        0.71560    0.21140    0.46250    1.000
    C17      C        0.41420    0.39790    0.07460    1.000
    H9       H        0.44570    0.47200    0.07350    1.000
    C18      C        0.31330    0.39870    0.06900    1.000
    H10      H        0.27930    0.46560    0.05340    1.000
    C19      C        0.26900    0.29720    0.08750    1.000
    C20      C        0.32740    0.19750    0.10760    1.000
    H11      H        0.30040    0.13130    0.12630    1.000
    C21      C        0.42160    0.19800    0.10000    1.000
    H12      H        0.45630    0.12710    0.10800    1.000
    C22      C        0.00850    0.37250    0.05660    1.000
    H13      H        0.97310    0.43550    0.03800    1.000
    C23      C        0.11090    0.36560    0.04680    1.000
    H14      H        0.13670    0.40440    0.01400    1.000
    C24      C        0.16590    0.29890    0.08860    1.000
    C25      C        0.11890    0.22870    0.13410    1.000
    H15      H        0.15150    0.19120    0.16740    1.000
    C26      C        0.01930    0.22290    0.12310    1.000
    H16      H        0.98850    0.15990    0.14200    1.000
    C27      C        0.32080    0.40600    0.09040    1.000
    H17      H        0.29430    0.47920    0.10220    1.000
    C28      C        0.31820    0.18670    0.08630    1.000
    H18      H        0.28760    0.11230    0.08950    1.000
    C29      C        0.41650    0.19450    0.08010    1.000
    H19      H        0.44900    0.12230    0.07460    1.000
    C30      C        0.10940    0.39800    0.06490    1.000
    H20      H        0.13520    0.47330    0.05550    1.000
    C31      C        0.11280    0.20700    0.11610    1.000
    H21      H        0.14250    0.13490    0.12940    1.000
    Zn3      Zn       0.82008    0.20247    0.58706    1.000
    O9       O        0.63450    0.02110    0.57440    1.000
    N3       N        0.96620    0.20340    0.58920    1.000
    C32      C        0.71430    0.96710    0.57990    1.000
    Zn4      Zn       0.61069    0.20291    0.57720    1.000
    O10      O        0.79170    0.01920    0.58730    1.000
    N4       N        0.46650    0.20330    0.58140    1.000
    C33      C        0.71170    0.83030    0.58020    1.000
    O11      O        0.63250    0.38620    0.57780    1.000
    C34      C        0.79490    0.76270    0.58790    1.000
    H22      H        0.85250    0.80380    0.59340    1.000
    O12      O        0.78980    0.38530    0.58370    1.000
    C35      C        0.62740    0.76580    0.57320    1.000
    H23      H        0.57020    0.80790    0.56800    1.000
    O13      O        0.64810    0.20100    0.66940    1.000
    C36      C        0.71200    0.57390    0.57930    1.000
    O14      O        0.80800    0.21120    0.67890    1.000
    C37      C        0.62640    0.64080    0.57360    1.000
    H24      H        0.56860    0.59980    0.57010    1.000
    O15      O        0.63300    0.28940    0.98450    1.000
    C38      C        0.79570    0.63840    0.58760    1.000
    H25      H        0.85320    0.59710    0.59300    1.000
    O16      O        0.79420    0.30310    0.99230    1.000
    C39      C        0.71160    0.43780    0.57930    1.000
    C40      C        0.72490    0.21340    0.70180    1.000
    C41      C        0.72470    0.23240    0.76730    1.000
    C42      C        0.80520    0.26490    0.80340    1.000
    H26      H        0.86230    0.27600    0.78530    1.000
    C43      C        0.80240    0.28120    0.86510    1.000
    H27      H        0.85810    0.30120    0.88810    1.000
    C44      C        0.71690    0.26840    0.89530    1.000
    C45      C        0.63680    0.23720    0.85820    1.000
    H28      H        0.57970    0.22630    0.87630    1.000
    C46      C        0.63810    0.22170    0.79590    1.000
    H29      H        0.58210    0.20430    0.77250    1.000
    C47      C        0.71560    0.28860    0.96250    1.000
    C48      C        0.41420    0.10210    0.57460    1.000
    H30      H        0.44570    0.02800    0.57350    1.000
    C49      C        0.31330    0.10130    0.56900    1.000
    H31      H        0.27930    0.03440    0.55340    1.000
    C50      C        0.26900    0.20280    0.58750    1.000
    C51      C        0.32740    0.30250    0.60760    1.000
    H32      H        0.30040    0.36870    0.62630    1.000
    C52      C        0.42160    0.30200    0.60000    1.000
    H33      H        0.45630    0.37290    0.60800    1.000
    C53      C        0.00850    0.12750    0.55660    1.000
    H34      H        0.97310    0.06450    0.53800    1.000
    C54      C        0.11090    0.13440    0.54680    1.000
    H35      H        0.13670    0.09560    0.51400    1.000
    C55      C        0.16590    0.20110    0.58860    1.000
    C56      C        0.11890    0.27130    0.63410    1.000
    H36      H        0.15150    0.30880    0.66740    1.000
    C57      C        0.01930    0.27710    0.62310    1.000
    H37      H        0.98850    0.34010    0.64200    1.000
    C58      C        0.32080    0.09400    0.59040    1.000
    H38      H        0.29430    0.02080    0.60220    1.000
    C59      C        0.31820    0.31330    0.58630    1.000
    H39      H        0.28760    0.38770    0.58950    1.000
    C60      C        0.41650    0.30550    0.58010    1.000
    H40      H        0.44900    0.37770    0.57460    1.000
    C61      C        0.10940    0.10200    0.56490    1.000
    H41      H        0.13520    0.02670    0.55550    1.000
    C62      C        0.11280    0.29300    0.61610    1.000
    H42      H        0.14250    0.36510    0.62940    1.000
    Zn5      Zn       0.17992    0.79753    0.41294    1.000
    O17      O        0.36550    0.97890    0.42560    1.000
    N5       N        0.03380    0.79660    0.41080    1.000
    C63      C        0.28570    0.03290    0.42010    1.000
    Zn6      Zn       0.38931    0.79709    0.42280    1.000
    O18      O        0.20830    0.98080    0.41270    1.000
    N6       N        0.53350    0.79670    0.41860    1.000
    C64      C        0.28830    0.16970    0.41980    1.000
    O19      O        0.36750    0.61380    0.42220    1.000
    C65      C        0.20510    0.23730    0.41210    1.000
    H43      H        0.14750    0.19620    0.40660    1.000
    O20      O        0.21020    0.61470    0.41630    1.000
    C66      C        0.37260    0.23420    0.42680    1.000
    H44      H        0.42980    0.19210    0.43200    1.000
    O21      O        0.35190    0.79900    0.33060    1.000
    C67      C        0.28800    0.42610    0.42070    1.000
    O22      O        0.19200    0.78880    0.32110    1.000
    C68      C        0.37360    0.35920    0.42640    1.000
    H45      H        0.43140    0.40020    0.42990    1.000
    O23      O        0.36700    0.71060    0.01550    1.000
    C69      C        0.20430    0.36160    0.41240    1.000
    H46      H        0.14680    0.40290    0.40700    1.000
    O24      O        0.20580    0.69690    0.00770    1.000
    C70      C        0.28840    0.56220    0.42070    1.000
    C71      C        0.27510    0.78660    0.29820    1.000
    C72      C        0.27530    0.76760    0.23270    1.000
    C73      C        0.19480    0.73510    0.19660    1.000
    H47      H        0.13770    0.72400    0.21470    1.000
    C74      C        0.19760    0.71880    0.13490    1.000
    H48      H        0.14190    0.69880    0.11190    1.000
    C75      C        0.28310    0.73160    0.10470    1.000
    C76      C        0.36320    0.76280    0.14180    1.000
    H49      H        0.42030    0.77370    0.12370    1.000
    C77      C        0.36190    0.77830    0.20410    1.000
    H50      H        0.41790    0.79570    0.22750    1.000
    C78      C        0.28440    0.71140    0.03750    1.000
    C79      C        0.58580    0.89790    0.42540    1.000
    H51      H        0.55430    0.97200    0.42650    1.000
    C80      C        0.68670    0.89870    0.43100    1.000
    H52      H        0.72070    0.96560    0.44660    1.000
    C81      C        0.73100    0.79720    0.41250    1.000
    C82      C        0.67260    0.69750    0.39240    1.000
    H53      H        0.69960    0.63130    0.37370    1.000
    C83      C        0.57840    0.69800    0.40000    1.000
    H54      H        0.54370    0.62710    0.39200    1.000
    C84      C        0.99150    0.87250    0.44340    1.000
    H55      H        0.02690    0.93550    0.46200    1.000
    C85      C        0.88910    0.86560    0.45320    1.000
    H56      H        0.86330    0.90440    0.48600    1.000
    C86      C        0.83410    0.79890    0.41140    1.000
    C87      C        0.88110    0.72870    0.36590    1.000
    H57      H        0.84850    0.69120    0.33260    1.000
    C88      C        0.98070    0.72290    0.37690    1.000
    H58      H        0.01150    0.65990    0.35800    1.000
    C89      C        0.67920    0.90600    0.40960    1.000
    H59      H        0.70570    0.97920    0.39780    1.000
    C90      C        0.68180    0.68670    0.41370    1.000
    H60      H        0.71240    0.61230    0.41050    1.000
    C91      C        0.58350    0.69450    0.41990    1.000
    H61      H        0.55100    0.62230    0.42540    1.000
    C92      C        0.89060    0.89800    0.43510    1.000
    H62      H        0.86480    0.97330    0.44450    1.000
    C93      C        0.88720    0.70700    0.38390    1.000
    H63      H        0.85750    0.63490    0.37060    1.000
    Zn7      Zn       0.17992    0.70247    0.91294    1.000
    O25      O        0.36550    0.52110    0.92560    1.000
    N7       N        0.03380    0.70340    0.91080    1.000
    C94      C        0.28570    0.46710    0.92010    1.000
    Zn8      Zn       0.38931    0.70291    0.92280    1.000
    O26      O        0.20830    0.51920    0.91270    1.000
    N8       N        0.53350    0.70330    0.91860    1.000
    C95      C        0.28830    0.33030    0.91980    1.000
    O27      O        0.36750    0.88620    0.92220    1.000
    C96      C        0.20510    0.26270    0.91210    1.000
    H64      H        0.14750    0.30380    0.90660    1.000
    O28      O        0.21020    0.88530    0.91630    1.000
    C97      C        0.37260    0.26580    0.92680    1.000
    H65      H        0.42980    0.30790    0.93200    1.000
    O29      O        0.35190    0.70100    0.83060    1.000
    C98      C        0.28800    0.07390    0.92070    1.000
    O30      O        0.19200    0.71120    0.82110    1.000
    C99      C        0.37360    0.14080    0.92640    1.000
    H66      H        0.43140    0.09980    0.92990    1.000
    O31      O        0.36700    0.78940    0.51550    1.000
    C100     C        0.20430    0.13840    0.91240    1.000
    H67      H        0.14680    0.09710    0.90700    1.000
    O32      O        0.20580    0.80310    0.50770    1.000
    C101     C        0.28840    0.93780    0.92070    1.000
    C102     C        0.27510    0.71340    0.79820    1.000
    C103     C        0.27530    0.73240    0.73270    1.000
    C104     C        0.19480    0.76490    0.69660    1.000
    H68      H        0.13770    0.77600    0.71470    1.000
    C105     C        0.19760    0.78120    0.63490    1.000
    H69      H        0.14190    0.80120    0.61190    1.000
    C106     C        0.28310    0.76840    0.60470    1.000
    C107     C        0.36320    0.73720    0.64180    1.000
    H70      H        0.42030    0.72630    0.62370    1.000
    C108     C        0.36190    0.72170    0.70410    1.000
    H71      H        0.41790    0.70430    0.72750    1.000
    C109     C        0.28440    0.78860    0.53750    1.000
    C110     C        0.58580    0.60210    0.92540    1.000
    H72      H        0.55430    0.52800    0.92650    1.000
    C111     C        0.68670    0.60130    0.93100    1.000
    H73      H        0.72070    0.53440    0.94660    1.000
    C112     C        0.73100    0.70280    0.91250    1.000
    C113     C        0.67260    0.80250    0.89240    1.000
    H74      H        0.69960    0.86870    0.87370    1.000
    C114     C        0.57840    0.80200    0.90000    1.000
    H75      H        0.54370    0.87290    0.89200    1.000
    C115     C        0.99150    0.62750    0.94340    1.000
    H76      H        0.02690    0.56450    0.96200    1.000
    C116     C        0.88910    0.63440    0.95320    1.000
    H77      H        0.86330    0.59560    0.98600    1.000
    C117     C        0.83410    0.70110    0.91140    1.000
    C118     C        0.88110    0.77130    0.86590    1.000
    H78      H        0.84850    0.80880    0.83260    1.000
    C119     C        0.98070    0.77710    0.87690    1.000
    H79      H        0.01150    0.84010    0.85800    1.000
    C120     C        0.67920    0.59400    0.90960    1.000
    H80      H        0.70570    0.52080    0.89780    1.000
    C121     C        0.68180    0.81330    0.91370    1.000
    H81      H        0.71240    0.88770    0.91050    1.000
    C122     C        0.58350    0.80550    0.91990    1.000
    H82      H        0.55100    0.87770    0.92540    1.000
    C123     C        0.89060    0.60200    0.93510    1.000
    H83      H        0.86480    0.52670    0.94450    1.000
    C124     C        0.88720    0.79300    0.88390    1.000
    H84      H        0.85750    0.86510    0.87060    1.000
