# CIF file generated by openbabel 3.1.0, see https://openbabel.org
data_I
_chemical_name_common 'image0'
_cell_length_a 13.6556
_cell_length_b 28.194
_cell_length_c 17.2693
_cell_angle_alpha 90
_cell_angle_beta 107.08
_cell_angle_gamma 90
_space_group_name_H-M_alt 'P 1'
_space_group_name_Hall 'P 1'
loop_
    _symmetry_equiv_pos_as_xyz
    x,y,z
loop_
    _atom_site_label
    _atom_site_type_symbol
    _atom_site_fract_x
    _atom_site_fract_y
    _atom_site_fract_z
    _atom_site_occupancy
    C1       C        0.54670    0.44710    0.64000    1.000
    C2       C        0.44230    0.46080    0.57920    1.000
    C3       C        0.29530    0.34030    0.66620    1.000
    C4       C        0.21640    0.37680    0.67980    1.000
    C5       C        0.90260    0.29790    0.56640    1.000
    C6       C        0.95990    0.29690    0.50020    1.000
    C7       C        0.47220    0.48930    0.82740    1.000
    C8       C        0.48600    0.44200    0.86950    1.000
    C9       C        0.18580    0.25130    0.81990    1.000
    C10      C        0.18920    0.20760    0.76490    1.000
    C11      C        0.72230    0.41300    0.46010    1.000
    C12      C        0.62470    0.38350    0.45660    1.000
    O1       O        0.62620    0.45730    0.62370    1.000
    O2       O        0.44220    0.48178    0.51670    1.000
    O3       O        0.54060    0.42601    0.70370    1.000
    O4       O        0.36510    0.44763    0.59920    1.000
    O5       O        0.38290    0.35634    0.67490    1.000
    O6       O        0.25430    0.41752    0.70490    1.000
    O7       O        0.26660    0.29953    0.64750    1.000
    O8       O        0.12730    0.36380    0.66580    1.000
    O9       O        0.95230    0.28780    0.63610    1.000
    O10      O        0.05240    0.28672    0.52150    1.000
    O11      O        0.80930    0.30770    0.54080    1.000
    O12      O        0.90500    0.30618    0.42930    1.000
    O13      O        0.72400    0.45543    0.47600    1.000
    O14      O        0.55560    0.40184    0.47780    1.000
    O15      O        0.41820    0.48868    0.75280    1.000
    O16      O        0.45060    0.40592    0.82600    1.000
    O17      O        0.51380    0.52474    0.86530    1.000
    O18      O        0.52930    0.44018    0.94480    1.000
    O19      O        0.15370    0.28958    0.78680    1.000
    O20      O        0.15790    0.21283    0.69140    1.000
    O21      O        0.21810    0.24343    0.89430    1.000
    O22      O        0.22340    0.17039    0.80380    1.000
    O23      O        0.79410    0.39000    0.44360    1.000
    O24      O        0.62700    0.34040    0.43230    1.000
    Cr1      Cr       0.40076    0.42336    0.71085    1.000
    Cr2      Cr       0.76189    0.32230    0.42276    1.000
    Mn1      Mn       0.59197    0.48837    0.49746    1.000
    Mn2      Mn       0.11553    0.28588    0.65367    1.000
    O25      O        0.68400    0.54590    0.56350    1.000
    C13      C        0.77180    0.54050    0.63010    1.000
    O26      O        0.70800    0.53670    0.58000    1.000
    C14      C        0.04670    0.94710    0.64000    1.000
    C15      C        0.94230    0.96080    0.57920    1.000
    C16      C        0.79530    0.84030    0.66620    1.000
    C17      C        0.71640    0.87680    0.67980    1.000
    C18      C        0.40260    0.79790    0.56640    1.000
    C19      C        0.45990    0.79690    0.50020    1.000
    C20      C        0.97220    0.98930    0.82740    1.000
    C21      C        0.98600    0.94200    0.86950    1.000
    C22      C        0.68580    0.75130    0.81990    1.000
    C23      C        0.68920    0.70760    0.76490    1.000
    C24      C        0.22230    0.91300    0.46010    1.000
    C25      C        0.12470    0.88350    0.45660    1.000
    O27      O        0.12620    0.95730    0.62370    1.000
    O28      O        0.94220    0.98178    0.51670    1.000
    O29      O        0.04060    0.92601    0.70370    1.000
    O30      O        0.86510    0.94763    0.59920    1.000
    O31      O        0.88290    0.85634    0.67490    1.000
    O32      O        0.75430    0.91752    0.70490    1.000
    O33      O        0.76660    0.79953    0.64750    1.000
    O34      O        0.62730    0.86380    0.66580    1.000
    O35      O        0.45230    0.78780    0.63610    1.000
    O36      O        0.55240    0.78672    0.52150    1.000
    O37      O        0.30930    0.80770    0.54080    1.000
    O38      O        0.40500    0.80618    0.42930    1.000
    O39      O        0.22400    0.95543    0.47600    1.000
    O40      O        0.05560    0.90184    0.47780    1.000
    O41      O        0.91820    0.98868    0.75280    1.000
    O42      O        0.95060    0.90592    0.82600    1.000
    O43      O        0.01380    0.02474    0.86530    1.000
    O44      O        0.02930    0.94018    0.94480    1.000
    O45      O        0.65370    0.78958    0.78680    1.000
    O46      O        0.65790    0.71283    0.69140    1.000
    O47      O        0.71810    0.74343    0.89430    1.000
    O48      O        0.72340    0.67039    0.80380    1.000
    O49      O        0.29410    0.89000    0.44360    1.000
    O50      O        0.12700    0.84040    0.43230    1.000
    Cr3      Cr       0.90076    0.92336    0.71085    1.000
    Cr4      Cr       0.26189    0.82230    0.42276    1.000
    Mn3      Mn       0.09197    0.98837    0.49746    1.000
    Mn4      Mn       0.61553    0.78588    0.65367    1.000
    O51      O        0.18400    0.04590    0.56350    1.000
    C26      C        0.27180    0.04050    0.63010    1.000
    O52      O        0.20800    0.03670    0.58000    1.000
    C27      C        0.54670    0.55290    0.14000    1.000
    C28      C        0.44230    0.53920    0.07920    1.000
    C29      C        0.29530    0.65970    0.16620    1.000
    C30      C        0.21640    0.62320    0.17980    1.000
    C31      C        0.90260    0.70210    0.06640    1.000
    C32      C        0.95990    0.70310    0.00020    1.000
    C33      C        0.47220    0.51070    0.32740    1.000
    C34      C        0.48600    0.55800    0.36950    1.000
    C35      C        0.18580    0.74870    0.31990    1.000
    C36      C        0.18920    0.79240    0.26490    1.000
    C37      C        0.72230    0.58700    0.96010    1.000
    C38      C        0.62470    0.61650    0.95660    1.000
    O53      O        0.62620    0.54270    0.12370    1.000
    O54      O        0.44220    0.51822    0.01670    1.000
    O55      O        0.54060    0.57399    0.20370    1.000
    O56      O        0.36510    0.55237    0.09920    1.000
    O57      O        0.38290    0.64366    0.17490    1.000
    O58      O        0.25430    0.58248    0.20490    1.000
    O59      O        0.26660    0.70047    0.14750    1.000
    O60      O        0.12730    0.63620    0.16580    1.000
    O61      O        0.95230    0.71220    0.13610    1.000
    O62      O        0.05240    0.71328    0.02150    1.000
    O63      O        0.80930    0.69230    0.04080    1.000
    O64      O        0.90500    0.69382    0.92930    1.000
    O65      O        0.72400    0.54457    0.97600    1.000
    O66      O        0.55560    0.59816    0.97780    1.000
    O67      O        0.41820    0.51132    0.25280    1.000
    O68      O        0.45060    0.59408    0.32600    1.000
    O69      O        0.51380    0.47526    0.36530    1.000
    O70      O        0.52930    0.55982    0.44480    1.000
    O71      O        0.15370    0.71042    0.28680    1.000
    O72      O        0.15790    0.78717    0.19140    1.000
    O73      O        0.21810    0.75657    0.39430    1.000
    O74      O        0.22340    0.82961    0.30380    1.000
    O75      O        0.79410    0.61000    0.94360    1.000
    O76      O        0.62700    0.65960    0.93230    1.000
    Cr5      Cr       0.40076    0.57664    0.21085    1.000
    Cr6      Cr       0.76189    0.67770    0.92276    1.000
    Mn5      Mn       0.59197    0.51163    0.99746    1.000
    Mn6      Mn       0.11553    0.71412    0.15367    1.000
    O77      O        0.68400    0.45410    0.06350    1.000
    C39      C        0.77180    0.45950    0.13010    1.000
    O78      O        0.70800    0.46330    0.08000    1.000
    C40      C        0.04670    0.05290    0.14000    1.000
    C41      C        0.94230    0.03920    0.07920    1.000
    C42      C        0.79530    0.15970    0.16620    1.000
    C43      C        0.71640    0.12320    0.17980    1.000
    C44      C        0.40260    0.20210    0.06640    1.000
    C45      C        0.45990    0.20310    0.00020    1.000
    C46      C        0.97220    0.01070    0.32740    1.000
    C47      C        0.98600    0.05800    0.36950    1.000
    C48      C        0.68580    0.24870    0.31990    1.000
    C49      C        0.68920    0.29240    0.26490    1.000
    C50      C        0.22230    0.08700    0.96010    1.000
    C51      C        0.12470    0.11650    0.95660    1.000
    O79      O        0.12620    0.04270    0.12370    1.000
    O80      O        0.94220    0.01822    0.01670    1.000
    O81      O        0.04060    0.07399    0.20370    1.000
    O82      O        0.86510    0.05237    0.09920    1.000
    O83      O        0.88290    0.14366    0.17490    1.000
    O84      O        0.75430    0.08248    0.20490    1.000
    O85      O        0.76660    0.20047    0.14750    1.000
    O86      O        0.62730    0.13620    0.16580    1.000
    O87      O        0.45230    0.21220    0.13610    1.000
    O88      O        0.55240    0.21328    0.02150    1.000
    O89      O        0.30930    0.19230    0.04080    1.000
    O90      O        0.40500    0.19382    0.92930    1.000
    O91      O        0.22400    0.04457    0.97600    1.000
    O92      O        0.05560    0.09816    0.97780    1.000
    O93      O        0.91820    0.01132    0.25280    1.000
    O94      O        0.95060    0.09408    0.32600    1.000
    O95      O        0.01380    0.97526    0.36530    1.000
    O96      O        0.02930    0.05982    0.44480    1.000
    O97      O        0.65370    0.21042    0.28680    1.000
    O98      O        0.65790    0.28717    0.19140    1.000
    O99      O        0.71810    0.25657    0.39430    1.000
    O100     O        0.72340    0.32961    0.30380    1.000
    O101     O        0.29410    0.11000    0.94360    1.000
    O102     O        0.12700    0.15960    0.93230    1.000
    Cr7      Cr       0.90076    0.07664    0.21085    1.000
    Cr8      Cr       0.26189    0.17770    0.92276    1.000
    Mn7      Mn       0.09197    0.01163    0.99746    1.000
    Mn8      Mn       0.61553    0.21412    0.15367    1.000
    O103     O        0.18400    0.95410    0.06350    1.000
    C52      C        0.27180    0.95950    0.13010    1.000
    O104     O        0.20800    0.96330    0.08000    1.000
