# CIF file generated by openbabel 3.1.0, see https://openbabel.org
data_I
_chemical_name_common 'image0'
_cell_length_a 8.6931
_cell_length_b 14.4394
_cell_length_c 12.6492
_cell_angle_alpha 90
_cell_angle_beta 96.418
_cell_angle_gamma 90
_space_group_name_H-M_alt 'P 1'
_space_group_name_Hall 'P 1'
loop_
    _symmetry_equiv_pos_as_xyz
    x,y,z
loop_
    _atom_site_label
    _atom_site_type_symbol
    _atom_site_fract_x
    _atom_site_fract_y
    _atom_site_fract_z
    _atom_site_occupancy
    Zn1      Zn       0.14035    0.37305    0.95441    1.000
    Zn2      Zn       0.61942    0.48990    0.64352    1.000
    P1       P        0.88563    0.51266    0.84665    1.000
    P2       P        0.10577    0.15091    0.95339    1.000
    P3       P        0.37419    0.46126    0.80659    1.000
    O1       O        0.80850    0.51334    0.73352    1.000
    O2       O        0.19060    0.08430    0.03184    1.000
    O3       O        0.46260    0.43170    0.71670    1.000
    O4       O        0.94380    0.11301    0.91492    1.000
    O5       O        0.94840    0.41763    0.87677    1.000
    O6       O        0.77750    0.54981    0.92432    1.000
    O7       O        0.09460    0.24755    0.99720    1.000
    O8       O        0.29270    0.38070    0.85030    1.000
    O9       O        0.02360    0.58382    0.85501    1.000
    H1       H        0.08630    0.56820    0.81450    1.000
    O10      O        0.20080    0.16081    0.85532    1.000
    H2       H        0.21090    0.10970    0.82860    1.000
    O11      O        0.23260    0.51890    0.74630    1.000
    O12      O        0.46230    0.53450    0.88220    1.000
    O13      O        0.29340    0.54660    0.80070    1.000
    O14      O        0.50920    0.45830    0.90690    1.000
    Zn3      Zn       0.35965    0.87305    0.54559    1.000
    Zn4      Zn       0.88058    0.98990    0.85648    1.000
    P4       P        0.61437    0.01266    0.65335    1.000
    P5       P        0.39423    0.65091    0.54661    1.000
    P6       P        0.12581    0.96126    0.69341    1.000
    O15      O        0.69150    0.01334    0.76648    1.000
    O16      O        0.30940    0.58430    0.46816    1.000
    O17      O        0.03740    0.93170    0.78330    1.000
    O18      O        0.55620    0.61301    0.58508    1.000
    O19      O        0.55160    0.91763    0.62323    1.000
    O20      O        0.72250    0.04981    0.57568    1.000
    O21      O        0.40540    0.74755    0.50280    1.000
    O22      O        0.20730    0.88070    0.64970    1.000
    O23      O        0.47640    0.08382    0.64499    1.000
    H3       H        0.41370    0.06820    0.68550    1.000
    O24      O        0.29920    0.66081    0.64468    1.000
    H4       H        0.28910    0.60970    0.67140    1.000
    O25      O        0.26740    0.01890    0.75370    1.000
    O26      O        0.03770    0.03450    0.61780    1.000
    O27      O        0.20660    0.04660    0.69930    1.000
    O28      O        0.99080    0.95830    0.59310    1.000
    Zn5      Zn       0.85965    0.62695    0.04559    1.000
    Zn6      Zn       0.38058    0.51010    0.35648    1.000
    P7       P        0.11437    0.48734    0.15335    1.000
    P8       P        0.89423    0.84909    0.04661    1.000
    P9       P        0.62581    0.53874    0.19341    1.000
    O29      O        0.19150    0.48666    0.26648    1.000
    O30      O        0.80940    0.91570    0.96816    1.000
    O31      O        0.53740    0.56830    0.28330    1.000
    O32      O        0.05620    0.88699    0.08508    1.000
    O33      O        0.05160    0.58237    0.12323    1.000
    O34      O        0.22250    0.45019    0.07568    1.000
    O35      O        0.90540    0.75245    0.00280    1.000
    O36      O        0.70730    0.61930    0.14970    1.000
    O37      O        0.97640    0.41618    0.14499    1.000
    H5       H        0.91370    0.43180    0.18550    1.000
    O38      O        0.79920    0.83919    0.14468    1.000
    H6       H        0.78910    0.89030    0.17140    1.000
    O39      O        0.76740    0.48110    0.25370    1.000
    O40      O        0.53770    0.46550    0.11780    1.000
    O41      O        0.70660    0.45340    0.19930    1.000
    O42      O        0.49080    0.54170    0.09310    1.000
    Zn7      Zn       0.64035    0.12695    0.45441    1.000
    Zn8      Zn       0.11942    0.01010    0.14352    1.000
    P10      P        0.38563    0.98734    0.34665    1.000
    P11      P        0.60577    0.34909    0.45339    1.000
    P12      P        0.87419    0.03874    0.30659    1.000
    O43      O        0.30850    0.98666    0.23352    1.000
    O44      O        0.69060    0.41570    0.53184    1.000
    O45      O        0.96260    0.06830    0.21670    1.000
    O46      O        0.44380    0.38699    0.41492    1.000
    O47      O        0.44840    0.08237    0.37677    1.000
    O48      O        0.27750    0.95019    0.42432    1.000
    O49      O        0.59460    0.25245    0.49720    1.000
    O50      O        0.79270    0.11930    0.35030    1.000
    O51      O        0.52360    0.91618    0.35501    1.000
    H7       H        0.58630    0.93180    0.31450    1.000
    O52      O        0.70080    0.33919    0.35532    1.000
    H8       H        0.71090    0.39030    0.32860    1.000
    O53      O        0.73260    0.98110    0.24630    1.000
    O54      O        0.96230    0.96550    0.38220    1.000
    O55      O        0.79340    0.95340    0.30070    1.000
    O56      O        0.00920    0.04170    0.40690    1.000
