# CIF file generated by openbabel 3.1.0, see https://openbabel.org
data_I
_chemical_name_common 'image0'
_cell_length_a 13.529
_cell_length_b 32.896
_cell_length_c 39.785
_cell_angle_alpha 90
_cell_angle_beta 90
_cell_angle_gamma 90
_space_group_name_H-M_alt 'P 1'
_space_group_name_Hall 'P 1'
loop_
    _symmetry_equiv_pos_as_xyz
    x,y,z
loop_
    _atom_site_label
    _atom_site_type_symbol
    _atom_site_fract_x
    _atom_site_fract_y
    _atom_site_fract_z
    _atom_site_occupancy
    Cd1      Cd       0.00907    0.69450    0.26054    1.000
    N1       N        0.23490    0.69912    0.28652    1.000
    N2       N        0.01170    0.66765    0.20671    1.000
    O1       O        0.09790    0.75518    0.25421    1.000
    O2       O        0.20310    0.80314    0.26396    1.000
    O3       O        0.17630    0.67984    0.26554    1.000
    O4       O        0.30500    0.61407    0.27843    1.000
    O5       O        0.24020    0.54339    0.31663    1.000
    C1       C        0.17720    0.76830    0.26667    1.000
    C2       C        0.24190    0.74070    0.28755    1.000
    C3       C        0.30950    0.75880    0.30900    1.000
    H1       H        0.31580    0.78690    0.30900    1.000
    C4       C        0.36750    0.73590    0.33010    1.000
    H2       H        0.41200    0.74820    0.34480    1.000
    C5       C        0.35760    0.69420    0.32890    1.000
    H3       H        0.39690    0.67830    0.34280    1.000
    C6       C        0.29180    0.67560    0.30788    1.000
    C7       C        0.27990    0.63050    0.30623    1.000
    C8       C        0.25030    0.61170    0.33528    1.000
    H4       H        0.23930    0.62820    0.35390    1.000
    C9       C        0.23480    0.56960    0.33965    1.000
    C10      C        0.21040    0.55370    0.37355    1.000
    C11      C        0.24570    0.57260    0.40220    1.000
    H5       H        0.28100    0.59670    0.40030    1.000
    C12      C        0.01800    0.69100    0.17949    1.000
    H6       H        0.02450    0.71900    0.18230    1.000
    C13      C        0.01510    0.67540    0.14716    1.000
    H7       H        0.02180    0.69270    0.12880    1.000
    C14      C        0.00220    0.63400    0.14215    1.000
    C15      C        0.99450    0.61010    0.17100    1.000
    H8       H        0.98550    0.58220    0.16910    1.000
    C16      C        0.00010    0.62770    0.20234    1.000
    H9       H        0.99570    0.61110    0.22120    1.000
    C17      C        0.17110    0.52240    0.43690    1.000
    H10      H        0.15670    0.51260    0.45830    1.000
    C18      C        0.15340    0.51870    0.37640    1.000
    H11      H        0.12880    0.50620    0.35720    1.000
    C19      C        0.13290    0.50230    0.40830    1.000
    H12      H        0.09510    0.47880    0.41050    1.000
    C20      C        0.22950    0.55620    0.43330    1.000
    H13      H        0.25820    0.56800    0.45210    1.000
    Cd2      Cd       0.00907    0.19450    0.76054    1.000
    N3       N        0.23490    0.19912    0.78652    1.000
    N4       N        0.01170    0.16765    0.70671    1.000
    O6       O        0.09790    0.25518    0.75421    1.000
    O7       O        0.20310    0.30314    0.76396    1.000
    O8       O        0.17630    0.17984    0.76554    1.000
    O9       O        0.30500    0.11407    0.77843    1.000
    O10      O        0.24020    0.04339    0.81663    1.000
    C21      C        0.17720    0.26830    0.76667    1.000
    C22      C        0.24190    0.24070    0.78755    1.000
    C23      C        0.30950    0.25880    0.80900    1.000
    H14      H        0.31580    0.28690    0.80900    1.000
    C24      C        0.36750    0.23590    0.83010    1.000
    H15      H        0.41200    0.24820    0.84480    1.000
    C25      C        0.35760    0.19420    0.82890    1.000
    H16      H        0.39690    0.17830    0.84280    1.000
    C26      C        0.29180    0.17560    0.80788    1.000
    C27      C        0.27990    0.13050    0.80623    1.000
    C28      C        0.25030    0.11170    0.83528    1.000
    H17      H        0.23930    0.12820    0.85390    1.000
    C29      C        0.23480    0.06960    0.83965    1.000
    C30      C        0.21040    0.05370    0.87355    1.000
    C31      C        0.24570    0.07260    0.90220    1.000
    H18      H        0.28100    0.09670    0.90030    1.000
    C32      C        0.01800    0.19100    0.67949    1.000
    H19      H        0.02450    0.21900    0.68230    1.000
    C33      C        0.01510    0.17540    0.64716    1.000
    H20      H        0.02180    0.19270    0.62880    1.000
    C34      C        0.00220    0.13400    0.64215    1.000
    C35      C        0.99450    0.11010    0.67100    1.000
    H21      H        0.98550    0.08220    0.66910    1.000
    C36      C        0.00010    0.12770    0.70234    1.000
    H22      H        0.99570    0.11110    0.72120    1.000
    C37      C        0.17110    0.02240    0.93690    1.000
    H23      H        0.15670    0.01260    0.95830    1.000
    C38      C        0.15340    0.01870    0.87640    1.000
    H24      H        0.12880    0.00620    0.85720    1.000
    C39      C        0.13290    0.00230    0.90830    1.000
    H25      H        0.09510    0.97880    0.91050    1.000
    C40      C        0.22950    0.05620    0.93330    1.000
    H26      H        0.25820    0.06800    0.95210    1.000
    Cd3      Cd       0.50907    0.69450    0.76054    1.000
    N5       N        0.73490    0.69912    0.78652    1.000
    N6       N        0.51170    0.66765    0.70671    1.000
    O11      O        0.59790    0.75518    0.75421    1.000
    O12      O        0.70310    0.80314    0.76396    1.000
    O13      O        0.67630    0.67984    0.76554    1.000
    O14      O        0.80500    0.61407    0.77843    1.000
    O15      O        0.74020    0.54339    0.81663    1.000
    C41      C        0.67720    0.76830    0.76667    1.000
    C42      C        0.74190    0.74070    0.78755    1.000
    C43      C        0.80950    0.75880    0.80900    1.000
    H27      H        0.81580    0.78690    0.80900    1.000
    C44      C        0.86750    0.73590    0.83010    1.000
    H28      H        0.91200    0.74820    0.84480    1.000
    C45      C        0.85760    0.69420    0.82890    1.000
    H29      H        0.89690    0.67830    0.84280    1.000
    C46      C        0.79180    0.67560    0.80788    1.000
    C47      C        0.77990    0.63050    0.80623    1.000
    C48      C        0.75030    0.61170    0.83528    1.000
    H30      H        0.73930    0.62820    0.85390    1.000
    C49      C        0.73480    0.56960    0.83965    1.000
    C50      C        0.71040    0.55370    0.87355    1.000
    C51      C        0.74570    0.57260    0.90220    1.000
    H31      H        0.78100    0.59670    0.90030    1.000
    C52      C        0.51800    0.69100    0.67949    1.000
    H32      H        0.52450    0.71900    0.68230    1.000
    C53      C        0.51510    0.67540    0.64716    1.000
    H33      H        0.52180    0.69270    0.62880    1.000
    C54      C        0.50220    0.63400    0.64215    1.000
    C55      C        0.49450    0.61010    0.67100    1.000
    H34      H        0.48550    0.58220    0.66910    1.000
    C56      C        0.50010    0.62770    0.70234    1.000
    H35      H        0.49570    0.61110    0.72120    1.000
    C57      C        0.67110    0.52240    0.93690    1.000
    H36      H        0.65670    0.51260    0.95830    1.000
    C58      C        0.65340    0.51870    0.87640    1.000
    H37      H        0.62880    0.50620    0.85720    1.000
    C59      C        0.63290    0.50230    0.90830    1.000
    H38      H        0.59510    0.47880    0.91050    1.000
    C60      C        0.72950    0.55620    0.93330    1.000
    H39      H        0.75820    0.56800    0.95210    1.000
    Cd4      Cd       0.50907    0.19450    0.26054    1.000
    N7       N        0.73490    0.19912    0.28652    1.000
    N8       N        0.51170    0.16765    0.20671    1.000
    O16      O        0.59790    0.25518    0.25421    1.000
    O17      O        0.70310    0.30314    0.26396    1.000
    O18      O        0.67630    0.17984    0.26554    1.000
    O19      O        0.80500    0.11407    0.27843    1.000
    O20      O        0.74020    0.04339    0.31663    1.000
    C61      C        0.67720    0.26830    0.26667    1.000
    C62      C        0.74190    0.24070    0.28755    1.000
    C63      C        0.80950    0.25880    0.30900    1.000
    H40      H        0.81580    0.28690    0.30900    1.000
    C64      C        0.86750    0.23590    0.33010    1.000
    H41      H        0.91200    0.24820    0.34480    1.000
    C65      C        0.85760    0.19420    0.32890    1.000
    H42      H        0.89690    0.17830    0.34280    1.000
    C66      C        0.79180    0.17560    0.30788    1.000
    C67      C        0.77990    0.13050    0.30623    1.000
    C68      C        0.75030    0.11170    0.33528    1.000
    H43      H        0.73930    0.12820    0.35390    1.000
    C69      C        0.73480    0.06960    0.33965    1.000
    C70      C        0.71040    0.05370    0.37355    1.000
    C71      C        0.74570    0.07260    0.40220    1.000
    H44      H        0.78100    0.09670    0.40030    1.000
    C72      C        0.51800    0.19100    0.17949    1.000
    H45      H        0.52450    0.21900    0.18230    1.000
    C73      C        0.51510    0.17540    0.14716    1.000
    H46      H        0.52180    0.19270    0.12880    1.000
    C74      C        0.50220    0.13400    0.14215    1.000
    C75      C        0.49450    0.11010    0.17100    1.000
    H47      H        0.48550    0.08220    0.16910    1.000
    C76      C        0.50010    0.12770    0.20234    1.000
    H48      H        0.49570    0.11110    0.22120    1.000
    C77      C        0.67110    0.02240    0.43690    1.000
    H49      H        0.65670    0.01260    0.45830    1.000
    C78      C        0.65340    0.01870    0.37640    1.000
    H50      H        0.62880    0.00620    0.35720    1.000
    C79      C        0.63290    0.00230    0.40830    1.000
    H51      H        0.59510    0.97880    0.41050    1.000
    C80      C        0.72950    0.05620    0.43330    1.000
    H52      H        0.75820    0.06800    0.45210    1.000
    Cd5      Cd       0.74093    0.05550    0.26054    1.000
    N9       N        0.51510    0.05088    0.28652    1.000
    N10      N        0.73830    0.08235    0.20671    1.000
    O21      O        0.65210    0.99482    0.25421    1.000
    O22      O        0.54690    0.94686    0.26396    1.000
    O23      O        0.57370    0.07016    0.26554    1.000
    O24      O        0.44500    0.13593    0.27843    1.000
    O25      O        0.50980    0.20661    0.31663    1.000
    C81      C        0.57280    0.98170    0.26667    1.000
    C82      C        0.50810    0.00930    0.28755    1.000
    C83      C        0.44050    0.99120    0.30900    1.000
    H53      H        0.43420    0.96310    0.30900    1.000
    C84      C        0.38250    0.01410    0.33010    1.000
    H54      H        0.33800    0.00180    0.34480    1.000
    C85      C        0.39240    0.05580    0.32890    1.000
    H55      H        0.35310    0.07170    0.34280    1.000
    C86      C        0.45820    0.07440    0.30788    1.000
    C87      C        0.47010    0.11950    0.30623    1.000
    C88      C        0.49970    0.13830    0.33528    1.000
    H56      H        0.51070    0.12180    0.35390    1.000
    C89      C        0.51520    0.18040    0.33965    1.000
    C90      C        0.53960    0.19630    0.37355    1.000
    C91      C        0.50430    0.17740    0.40220    1.000
    H57      H        0.46900    0.15330    0.40030    1.000
    C92      C        0.73200    0.05900    0.17949    1.000
    H58      H        0.72550    0.03100    0.18230    1.000
    C93      C        0.73490    0.07460    0.14716    1.000
    H59      H        0.72820    0.05730    0.12880    1.000
    C94      C        0.74780    0.11600    0.14215    1.000
    C95      C        0.75550    0.13990    0.17100    1.000
    H60      H        0.76450    0.16780    0.16910    1.000
    C96      C        0.74990    0.12230    0.20234    1.000
    H61      H        0.75430    0.13890    0.22120    1.000
    C97      C        0.57890    0.22760    0.43690    1.000
    H62      H        0.59330    0.23740    0.45830    1.000
    C98      C        0.59660    0.23130    0.37640    1.000
    H63      H        0.62120    0.24380    0.35720    1.000
    C99      C        0.61710    0.24770    0.40830    1.000
    H64      H        0.65490    0.27120    0.41050    1.000
    C100     C        0.52050    0.19380    0.43330    1.000
    H65      H        0.49180    0.18200    0.45210    1.000
    Cd6      Cd       0.74093    0.55550    0.76054    1.000
    N11      N        0.51510    0.55088    0.78652    1.000
    N12      N        0.73830    0.58235    0.70671    1.000
    O26      O        0.65210    0.49482    0.75421    1.000
    O27      O        0.54690    0.44686    0.76396    1.000
    O28      O        0.57370    0.57016    0.76554    1.000
    O29      O        0.44500    0.63593    0.77843    1.000
    O30      O        0.50980    0.70661    0.81663    1.000
    C101     C        0.57280    0.48170    0.76667    1.000
    C102     C        0.50810    0.50930    0.78755    1.000
    C103     C        0.44050    0.49120    0.80900    1.000
    H66      H        0.43420    0.46310    0.80900    1.000
    C104     C        0.38250    0.51410    0.83010    1.000
    H67      H        0.33800    0.50180    0.84480    1.000
    C105     C        0.39240    0.55580    0.82890    1.000
    H68      H        0.35310    0.57170    0.84280    1.000
    C106     C        0.45820    0.57440    0.80788    1.000
    C107     C        0.47010    0.61950    0.80623    1.000
    C108     C        0.49970    0.63830    0.83528    1.000
    H69      H        0.51070    0.62180    0.85390    1.000
    C109     C        0.51520    0.68040    0.83965    1.000
    C110     C        0.53960    0.69630    0.87355    1.000
    C111     C        0.50430    0.67740    0.90220    1.000
    H70      H        0.46900    0.65330    0.90030    1.000
    C112     C        0.73200    0.55900    0.67949    1.000
    H71      H        0.72550    0.53100    0.68230    1.000
    C113     C        0.73490    0.57460    0.64716    1.000
    H72      H        0.72820    0.55730    0.62880    1.000
    C114     C        0.74780    0.61600    0.64215    1.000
    C115     C        0.75550    0.63990    0.67100    1.000
    H73      H        0.76450    0.66780    0.66910    1.000
    C116     C        0.74990    0.62230    0.70234    1.000
    H74      H        0.75430    0.63890    0.72120    1.000
    C117     C        0.57890    0.72760    0.93690    1.000
    H75      H        0.59330    0.73740    0.95830    1.000
    C118     C        0.59660    0.73130    0.87640    1.000
    H76      H        0.62120    0.74380    0.85720    1.000
    C119     C        0.61710    0.74770    0.90830    1.000
    H77      H        0.65490    0.77120    0.91050    1.000
    C120     C        0.52050    0.69380    0.93330    1.000
    H78      H        0.49180    0.68200    0.95210    1.000
    Cd7      Cd       0.24093    0.05550    0.76054    1.000
    N13      N        0.01510    0.05088    0.78652    1.000
    N14      N        0.23830    0.08235    0.70671    1.000
    O31      O        0.15210    0.99482    0.75421    1.000
    O32      O        0.04690    0.94686    0.76396    1.000
    O33      O        0.07370    0.07016    0.76554    1.000
    O34      O        0.94500    0.13593    0.77843    1.000
    O35      O        0.00980    0.20661    0.81663    1.000
    C121     C        0.07280    0.98170    0.76667    1.000
    C122     C        0.00810    0.00930    0.78755    1.000
    C123     C        0.94050    0.99120    0.80900    1.000
    H79      H        0.93420    0.96310    0.80900    1.000
    C124     C        0.88250    0.01410    0.83010    1.000
    H80      H        0.83800    0.00180    0.84480    1.000
    C125     C        0.89240    0.05580    0.82890    1.000
    H81      H        0.85310    0.07170    0.84280    1.000
    C126     C        0.95820    0.07440    0.80788    1.000
    C127     C        0.97010    0.11950    0.80623    1.000
    C128     C        0.99970    0.13830    0.83528    1.000
    H82      H        0.01070    0.12180    0.85390    1.000
    C129     C        0.01520    0.18040    0.83965    1.000
    C130     C        0.03960    0.19630    0.87355    1.000
    C131     C        0.00430    0.17740    0.90220    1.000
    H83      H        0.96900    0.15330    0.90030    1.000
    C132     C        0.23200    0.05900    0.67949    1.000
    H84      H        0.22550    0.03100    0.68230    1.000
    C133     C        0.23490    0.07460    0.64716    1.000
    H85      H        0.22820    0.05730    0.62880    1.000
    C134     C        0.24780    0.11600    0.64215    1.000
    C135     C        0.25550    0.13990    0.67100    1.000
    H86      H        0.26450    0.16780    0.66910    1.000
    C136     C        0.24990    0.12230    0.70234    1.000
    H87      H        0.25430    0.13890    0.72120    1.000
    C137     C        0.07890    0.22760    0.93690    1.000
    H88      H        0.09330    0.23740    0.95830    1.000
    C138     C        0.09660    0.23130    0.87640    1.000
    H89      H        0.12120    0.24380    0.85720    1.000
    C139     C        0.11710    0.24770    0.90830    1.000
    H90      H        0.15490    0.27120    0.91050    1.000
    C140     C        0.02050    0.19380    0.93330    1.000
    H91      H        0.99180    0.18200    0.95210    1.000
    Cd8      Cd       0.24093    0.55550    0.26054    1.000
    N15      N        0.01510    0.55088    0.28652    1.000
    N16      N        0.23830    0.58235    0.20671    1.000
    O36      O        0.15210    0.49482    0.25421    1.000
    O37      O        0.04690    0.44686    0.26396    1.000
    O38      O        0.07370    0.57016    0.26554    1.000
    O39      O        0.94500    0.63593    0.27843    1.000
    O40      O        0.00980    0.70661    0.31663    1.000
    C141     C        0.07280    0.48170    0.26667    1.000
    C142     C        0.00810    0.50930    0.28755    1.000
    C143     C        0.94050    0.49120    0.30900    1.000
    H92      H        0.93420    0.46310    0.30900    1.000
    C144     C        0.88250    0.51410    0.33010    1.000
    H93      H        0.83800    0.50180    0.34480    1.000
    C145     C        0.89240    0.55580    0.32890    1.000
    H94      H        0.85310    0.57170    0.34280    1.000
    C146     C        0.95820    0.57440    0.30788    1.000
    C147     C        0.97010    0.61950    0.30623    1.000
    C148     C        0.99970    0.63830    0.33528    1.000
    H95      H        0.01070    0.62180    0.35390    1.000
    C149     C        0.01520    0.68040    0.33965    1.000
    C150     C        0.03960    0.69630    0.37355    1.000
    C151     C        0.00430    0.67740    0.40220    1.000
    H96      H        0.96900    0.65330    0.40030    1.000
    C152     C        0.23200    0.55900    0.17949    1.000
    H97      H        0.22550    0.53100    0.18230    1.000
    C153     C        0.23490    0.57460    0.14716    1.000
    H98      H        0.22820    0.55730    0.12880    1.000
    C154     C        0.24780    0.61600    0.14215    1.000
    C155     C        0.25550    0.63990    0.17100    1.000
    H99      H        0.26450    0.66780    0.16910    1.000
    C156     C        0.24990    0.62230    0.20234    1.000
    H100     H        0.25430    0.63890    0.22120    1.000
    C157     C        0.07890    0.72760    0.43690    1.000
    H101     H        0.09330    0.73740    0.45830    1.000
    C158     C        0.09660    0.73130    0.37640    1.000
    H102     H        0.12120    0.74380    0.35720    1.000
    C159     C        0.11710    0.74770    0.40830    1.000
    H103     H        0.15490    0.77120    0.41050    1.000
    C160     C        0.02050    0.69380    0.43330    1.000
    H104     H        0.99180    0.68200    0.45210    1.000
    Cd9      Cd       0.74093    0.69450    0.48946    1.000
    N17      N        0.51510    0.69912    0.46348    1.000
    N18      N        0.73830    0.66765    0.54329    1.000
    O41      O        0.65210    0.75518    0.49579    1.000
    O42      O        0.54690    0.80314    0.48604    1.000
    O43      O        0.57370    0.67984    0.48446    1.000
    O44      O        0.44500    0.61407    0.47157    1.000
    O45      O        0.50980    0.54339    0.43337    1.000
    C161     C        0.57280    0.76830    0.48333    1.000
    C162     C        0.50810    0.74070    0.46245    1.000
    C163     C        0.44050    0.75880    0.44100    1.000
    H105     H        0.43420    0.78690    0.44100    1.000
    C164     C        0.38250    0.73590    0.41990    1.000
    H106     H        0.33800    0.74820    0.40520    1.000
    C165     C        0.39240    0.69420    0.42110    1.000
    H107     H        0.35310    0.67830    0.40720    1.000
    C166     C        0.45820    0.67560    0.44212    1.000
    C167     C        0.47010    0.63050    0.44377    1.000
    C168     C        0.49970    0.61170    0.41472    1.000
    H108     H        0.51070    0.62820    0.39610    1.000
    C169     C        0.51520    0.56960    0.41035    1.000
    C170     C        0.53960    0.55370    0.37645    1.000
    C171     C        0.50430    0.57260    0.34780    1.000
    H109     H        0.46900    0.59670    0.34970    1.000
    C172     C        0.73200    0.69100    0.57051    1.000
    H110     H        0.72550    0.71900    0.56770    1.000
    C173     C        0.73490    0.67540    0.60284    1.000
    H111     H        0.72820    0.69270    0.62120    1.000
    C174     C        0.74780    0.63400    0.60785    1.000
    C175     C        0.75550    0.61010    0.57900    1.000
    H112     H        0.76450    0.58220    0.58090    1.000
    C176     C        0.74990    0.62770    0.54766    1.000
    H113     H        0.75430    0.61110    0.52880    1.000
    C177     C        0.57890    0.52240    0.31310    1.000
    H114     H        0.59330    0.51260    0.29170    1.000
    C178     C        0.59660    0.51870    0.37360    1.000
    H115     H        0.62120    0.50620    0.39280    1.000
    C179     C        0.61710    0.50230    0.34170    1.000
    H116     H        0.65490    0.47880    0.33950    1.000
    C180     C        0.52050    0.55620    0.31670    1.000
    H117     H        0.49180    0.56800    0.29790    1.000
    Cd10     Cd       0.74093    0.19450    0.98946    1.000
    N19      N        0.51510    0.19912    0.96348    1.000
    N20      N        0.73830    0.16765    0.04329    1.000
    O46      O        0.65210    0.25518    0.99579    1.000
    O47      O        0.54690    0.30314    0.98604    1.000
    O48      O        0.57370    0.17984    0.98446    1.000
    O49      O        0.44500    0.11407    0.97157    1.000
    O50      O        0.50980    0.04339    0.93337    1.000
    C181     C        0.57280    0.26830    0.98333    1.000
    C182     C        0.50810    0.24070    0.96245    1.000
    C183     C        0.44050    0.25880    0.94100    1.000
    H118     H        0.43420    0.28690    0.94100    1.000
    C184     C        0.38250    0.23590    0.91990    1.000
    H119     H        0.33800    0.24820    0.90520    1.000
    C185     C        0.39240    0.19420    0.92110    1.000
    H120     H        0.35310    0.17830    0.90720    1.000
    C186     C        0.45820    0.17560    0.94212    1.000
    C187     C        0.47010    0.13050    0.94377    1.000
    C188     C        0.49970    0.11170    0.91472    1.000
    H121     H        0.51070    0.12820    0.89610    1.000
    C189     C        0.51520    0.06960    0.91035    1.000
    C190     C        0.53960    0.05370    0.87645    1.000
    C191     C        0.50430    0.07260    0.84780    1.000
    H122     H        0.46900    0.09670    0.84970    1.000
    C192     C        0.73200    0.19100    0.07051    1.000
    H123     H        0.72550    0.21900    0.06770    1.000
    C193     C        0.73490    0.17540    0.10284    1.000
    H124     H        0.72820    0.19270    0.12120    1.000
    C194     C        0.74780    0.13400    0.10785    1.000
    C195     C        0.75550    0.11010    0.07900    1.000
    H125     H        0.76450    0.08220    0.08090    1.000
    C196     C        0.74990    0.12770    0.04766    1.000
    H126     H        0.75430    0.11110    0.02880    1.000
    C197     C        0.57890    0.02240    0.81310    1.000
    H127     H        0.59330    0.01260    0.79170    1.000
    C198     C        0.59660    0.01870    0.87360    1.000
    H128     H        0.62120    0.00620    0.89280    1.000
    C199     C        0.61710    0.00230    0.84170    1.000
    H129     H        0.65490    0.97880    0.83950    1.000
    C200     C        0.52050    0.05620    0.81670    1.000
    H130     H        0.49180    0.06800    0.79790    1.000
    Cd11     Cd       0.24093    0.69450    0.98946    1.000
    N21      N        0.01510    0.69912    0.96348    1.000
    N22      N        0.23830    0.66765    0.04329    1.000
    O51      O        0.15210    0.75518    0.99579    1.000
    O52      O        0.04690    0.80314    0.98604    1.000
    O53      O        0.07370    0.67984    0.98446    1.000
    O54      O        0.94500    0.61407    0.97157    1.000
    O55      O        0.00980    0.54339    0.93337    1.000
    C201     C        0.07280    0.76830    0.98333    1.000
    C202     C        0.00810    0.74070    0.96245    1.000
    C203     C        0.94050    0.75880    0.94100    1.000
    H131     H        0.93420    0.78690    0.94100    1.000
    C204     C        0.88250    0.73590    0.91990    1.000
    H132     H        0.83800    0.74820    0.90520    1.000
    C205     C        0.89240    0.69420    0.92110    1.000
    H133     H        0.85310    0.67830    0.90720    1.000
    C206     C        0.95820    0.67560    0.94212    1.000
    C207     C        0.97010    0.63050    0.94377    1.000
    C208     C        0.99970    0.61170    0.91472    1.000
    H134     H        0.01070    0.62820    0.89610    1.000
    C209     C        0.01520    0.56960    0.91035    1.000
    C210     C        0.03960    0.55370    0.87645    1.000
    C211     C        0.00430    0.57260    0.84780    1.000
    H135     H        0.96900    0.59670    0.84970    1.000
    C212     C        0.23200    0.69100    0.07051    1.000
    H136     H        0.22550    0.71900    0.06770    1.000
    C213     C        0.23490    0.67540    0.10284    1.000
    H137     H        0.22820    0.69270    0.12120    1.000
    C214     C        0.24780    0.63400    0.10785    1.000
    C215     C        0.25550    0.61010    0.07900    1.000
    H138     H        0.26450    0.58220    0.08090    1.000
    C216     C        0.24990    0.62770    0.04766    1.000
    H139     H        0.25430    0.61110    0.02880    1.000
    C217     C        0.07890    0.52240    0.81310    1.000
    H140     H        0.09330    0.51260    0.79170    1.000
    C218     C        0.09660    0.51870    0.87360    1.000
    H141     H        0.12120    0.50620    0.89280    1.000
    C219     C        0.11710    0.50230    0.84170    1.000
    H142     H        0.15490    0.47880    0.83950    1.000
    C220     C        0.02050    0.55620    0.81670    1.000
    H143     H        0.99180    0.56800    0.79790    1.000
    Cd12     Cd       0.24093    0.19450    0.48946    1.000
    N23      N        0.01510    0.19912    0.46348    1.000
    N24      N        0.23830    0.16765    0.54329    1.000
    O56      O        0.15210    0.25518    0.49579    1.000
    O57      O        0.04690    0.30314    0.48604    1.000
    O58      O        0.07370    0.17984    0.48446    1.000
    O59      O        0.94500    0.11407    0.47157    1.000
    O60      O        0.00980    0.04339    0.43337    1.000
    C221     C        0.07280    0.26830    0.48333    1.000
    C222     C        0.00810    0.24070    0.46245    1.000
    C223     C        0.94050    0.25880    0.44100    1.000
    H144     H        0.93420    0.28690    0.44100    1.000
    C224     C        0.88250    0.23590    0.41990    1.000
    H145     H        0.83800    0.24820    0.40520    1.000
    C225     C        0.89240    0.19420    0.42110    1.000
    H146     H        0.85310    0.17830    0.40720    1.000
    C226     C        0.95820    0.17560    0.44212    1.000
    C227     C        0.97010    0.13050    0.44377    1.000
    C228     C        0.99970    0.11170    0.41472    1.000
    H147     H        0.01070    0.12820    0.39610    1.000
    C229     C        0.01520    0.06960    0.41035    1.000
    C230     C        0.03960    0.05370    0.37645    1.000
    C231     C        0.00430    0.07260    0.34780    1.000
    H148     H        0.96900    0.09670    0.34970    1.000
    C232     C        0.23200    0.19100    0.57051    1.000
    H149     H        0.22550    0.21900    0.56770    1.000
    C233     C        0.23490    0.17540    0.60284    1.000
    H150     H        0.22820    0.19270    0.62120    1.000
    C234     C        0.24780    0.13400    0.60785    1.000
    C235     C        0.25550    0.11010    0.57900    1.000
    H151     H        0.26450    0.08220    0.58090    1.000
    C236     C        0.24990    0.12770    0.54766    1.000
    H152     H        0.25430    0.11110    0.52880    1.000
    C237     C        0.07890    0.02240    0.31310    1.000
    H153     H        0.09330    0.01260    0.29170    1.000
    C238     C        0.09660    0.01870    0.37360    1.000
    H154     H        0.12120    0.00620    0.39280    1.000
    C239     C        0.11710    0.00230    0.34170    1.000
    H155     H        0.15490    0.97880    0.33950    1.000
    C240     C        0.02050    0.05620    0.31670    1.000
    H156     H        0.99180    0.06800    0.29790    1.000
    Cd13     Cd       0.00907    0.05550    0.48946    1.000
    N25      N        0.23490    0.05088    0.46348    1.000
    N26      N        0.01170    0.08235    0.54329    1.000
    O61      O        0.09790    0.99482    0.49579    1.000
    O62      O        0.20310    0.94686    0.48604    1.000
    O63      O        0.17630    0.07016    0.48446    1.000
    O64      O        0.30500    0.13593    0.47157    1.000
    O65      O        0.24020    0.20661    0.43337    1.000
    C241     C        0.17720    0.98170    0.48333    1.000
    C242     C        0.24190    0.00930    0.46245    1.000
    C243     C        0.30950    0.99120    0.44100    1.000
    H157     H        0.31580    0.96310    0.44100    1.000
    C244     C        0.36750    0.01410    0.41990    1.000
    H158     H        0.41200    0.00180    0.40520    1.000
    C245     C        0.35760    0.05580    0.42110    1.000
    H159     H        0.39690    0.07170    0.40720    1.000
    C246     C        0.29180    0.07440    0.44212    1.000
    C247     C        0.27990    0.11950    0.44377    1.000
    C248     C        0.25030    0.13830    0.41472    1.000
    H160     H        0.23930    0.12180    0.39610    1.000
    C249     C        0.23480    0.18040    0.41035    1.000
    C250     C        0.21040    0.19630    0.37645    1.000
    C251     C        0.24570    0.17740    0.34780    1.000
    H161     H        0.28100    0.15330    0.34970    1.000
    C252     C        0.01800    0.05900    0.57051    1.000
    H162     H        0.02450    0.03100    0.56770    1.000
    C253     C        0.01510    0.07460    0.60284    1.000
    H163     H        0.02180    0.05730    0.62120    1.000
    C254     C        0.00220    0.11600    0.60785    1.000
    C255     C        0.99450    0.13990    0.57900    1.000
    H164     H        0.98550    0.16780    0.58090    1.000
    C256     C        0.00010    0.12230    0.54766    1.000
    H165     H        0.99570    0.13890    0.52880    1.000
    C257     C        0.17110    0.22760    0.31310    1.000
    H166     H        0.15670    0.23740    0.29170    1.000
    C258     C        0.15340    0.23130    0.37360    1.000
    H167     H        0.12880    0.24380    0.39280    1.000
    C259     C        0.13290    0.24770    0.34170    1.000
    H168     H        0.09510    0.27120    0.33950    1.000
    C260     C        0.22950    0.19380    0.31670    1.000
    H169     H        0.25820    0.18200    0.29790    1.000
    Cd14     Cd       0.00907    0.55550    0.98946    1.000
    N27      N        0.23490    0.55088    0.96348    1.000
    N28      N        0.01170    0.58235    0.04329    1.000
    O66      O        0.09790    0.49482    0.99579    1.000
    O67      O        0.20310    0.44686    0.98604    1.000
    O68      O        0.17630    0.57016    0.98446    1.000
    O69      O        0.30500    0.63593    0.97157    1.000
    O70      O        0.24020    0.70661    0.93337    1.000
    C261     C        0.17720    0.48170    0.98333    1.000
    C262     C        0.24190    0.50930    0.96245    1.000
    C263     C        0.30950    0.49120    0.94100    1.000
    H170     H        0.31580    0.46310    0.94100    1.000
    C264     C        0.36750    0.51410    0.91990    1.000
    H171     H        0.41200    0.50180    0.90520    1.000
    C265     C        0.35760    0.55580    0.92110    1.000
    H172     H        0.39690    0.57170    0.90720    1.000
    C266     C        0.29180    0.57440    0.94212    1.000
    C267     C        0.27990    0.61950    0.94377    1.000
    C268     C        0.25030    0.63830    0.91472    1.000
    H173     H        0.23930    0.62180    0.89610    1.000
    C269     C        0.23480    0.68040    0.91035    1.000
    C270     C        0.21040    0.69630    0.87645    1.000
    C271     C        0.24570    0.67740    0.84780    1.000
    H174     H        0.28100    0.65330    0.84970    1.000
    C272     C        0.01800    0.55900    0.07051    1.000
    H175     H        0.02450    0.53100    0.06770    1.000
    C273     C        0.01510    0.57460    0.10284    1.000
    H176     H        0.02180    0.55730    0.12120    1.000
    C274     C        0.00220    0.61600    0.10785    1.000
    C275     C        0.99450    0.63990    0.07900    1.000
    H177     H        0.98550    0.66780    0.08090    1.000
    C276     C        0.00010    0.62230    0.04766    1.000
    H178     H        0.99570    0.63890    0.02880    1.000
    C277     C        0.17110    0.72760    0.81310    1.000
    H179     H        0.15670    0.73740    0.79170    1.000
    C278     C        0.15340    0.73130    0.87360    1.000
    H180     H        0.12880    0.74380    0.89280    1.000
    C279     C        0.13290    0.74770    0.84170    1.000
    H181     H        0.09510    0.77120    0.83950    1.000
    C280     C        0.22950    0.69380    0.81670    1.000
    H182     H        0.25820    0.68200    0.79790    1.000
    Cd15     Cd       0.50907    0.05550    0.98946    1.000
    N29      N        0.73490    0.05088    0.96348    1.000
    N30      N        0.51170    0.08235    0.04329    1.000
    O71      O        0.59790    0.99482    0.99579    1.000
    O72      O        0.70310    0.94686    0.98604    1.000
    O73      O        0.67630    0.07016    0.98446    1.000
    O74      O        0.80500    0.13593    0.97157    1.000
    O75      O        0.74020    0.20661    0.93337    1.000
    C281     C        0.67720    0.98170    0.98333    1.000
    C282     C        0.74190    0.00930    0.96245    1.000
    C283     C        0.80950    0.99120    0.94100    1.000
    H183     H        0.81580    0.96310    0.94100    1.000
    C284     C        0.86750    0.01410    0.91990    1.000
    H184     H        0.91200    0.00180    0.90520    1.000
    C285     C        0.85760    0.05580    0.92110    1.000
    H185     H        0.89690    0.07170    0.90720    1.000
    C286     C        0.79180    0.07440    0.94212    1.000
    C287     C        0.77990    0.11950    0.94377    1.000
    C288     C        0.75030    0.13830    0.91472    1.000
    H186     H        0.73930    0.12180    0.89610    1.000
    C289     C        0.73480    0.18040    0.91035    1.000
    C290     C        0.71040    0.19630    0.87645    1.000
    C291     C        0.74570    0.17740    0.84780    1.000
    H187     H        0.78100    0.15330    0.84970    1.000
    C292     C        0.51800    0.05900    0.07051    1.000
    H188     H        0.52450    0.03100    0.06770    1.000
    C293     C        0.51510    0.07460    0.10284    1.000
    H189     H        0.52180    0.05730    0.12120    1.000
    C294     C        0.50220    0.11600    0.10785    1.000
    C295     C        0.49450    0.13990    0.07900    1.000
    H190     H        0.48550    0.16780    0.08090    1.000
    C296     C        0.50010    0.12230    0.04766    1.000
    H191     H        0.49570    0.13890    0.02880    1.000
    C297     C        0.67110    0.22760    0.81310    1.000
    H192     H        0.65670    0.23740    0.79170    1.000
    C298     C        0.65340    0.23130    0.87360    1.000
    H193     H        0.62880    0.24380    0.89280    1.000
    C299     C        0.63290    0.24770    0.84170    1.000
    H194     H        0.59510    0.27120    0.83950    1.000
    C300     C        0.72950    0.19380    0.81670    1.000
    H195     H        0.75820    0.18200    0.79790    1.000
    Cd16     Cd       0.50907    0.55550    0.48946    1.000
    N31      N        0.73490    0.55088    0.46348    1.000
    N32      N        0.51170    0.58235    0.54329    1.000
    O76      O        0.59790    0.49482    0.49579    1.000
    O77      O        0.70310    0.44686    0.48604    1.000
    O78      O        0.67630    0.57016    0.48446    1.000
    O79      O        0.80500    0.63593    0.47157    1.000
    O80      O        0.74020    0.70661    0.43337    1.000
    C301     C        0.67720    0.48170    0.48333    1.000
    C302     C        0.74190    0.50930    0.46245    1.000
    C303     C        0.80950    0.49120    0.44100    1.000
    H196     H        0.81580    0.46310    0.44100    1.000
    C304     C        0.86750    0.51410    0.41990    1.000
    H197     H        0.91200    0.50180    0.40520    1.000
    C305     C        0.85760    0.55580    0.42110    1.000
    H198     H        0.89690    0.57170    0.40720    1.000
    C306     C        0.79180    0.57440    0.44212    1.000
    C307     C        0.77990    0.61950    0.44377    1.000
    C308     C        0.75030    0.63830    0.41472    1.000
    H199     H        0.73930    0.62180    0.39610    1.000
    C309     C        0.73480    0.68040    0.41035    1.000
    C310     C        0.71040    0.69630    0.37645    1.000
    C311     C        0.74570    0.67740    0.34780    1.000
    H200     H        0.78100    0.65330    0.34970    1.000
    C312     C        0.51800    0.55900    0.57051    1.000
    H201     H        0.52450    0.53100    0.56770    1.000
    C313     C        0.51510    0.57460    0.60284    1.000
    H202     H        0.52180    0.55730    0.62120    1.000
    C314     C        0.50220    0.61600    0.60785    1.000
    C315     C        0.49450    0.63990    0.57900    1.000
    H203     H        0.48550    0.66780    0.58090    1.000
    C316     C        0.50010    0.62230    0.54766    1.000
    H204     H        0.49570    0.63890    0.52880    1.000
    C317     C        0.67110    0.72760    0.31310    1.000
    H205     H        0.65670    0.73740    0.29170    1.000
    C318     C        0.65340    0.73130    0.37360    1.000
    H206     H        0.62880    0.74380    0.39280    1.000
    C319     C        0.63290    0.74770    0.34170    1.000
    H207     H        0.59510    0.77120    0.33950    1.000
    C320     C        0.72950    0.69380    0.31670    1.000
    H208     H        0.75820    0.68200    0.29790    1.000
    Cd17     Cd       0.99093    0.30550    0.73946    1.000
    N33      N        0.76510    0.30088    0.71348    1.000
    N34      N        0.98830    0.33235    0.79329    1.000
    O81      O        0.90210    0.24482    0.74579    1.000
    O82      O        0.79690    0.19686    0.73604    1.000
    O83      O        0.82370    0.32016    0.73446    1.000
    O84      O        0.69500    0.38593    0.72157    1.000
    O85      O        0.75980    0.45661    0.68337    1.000
    C321     C        0.82280    0.23170    0.73333    1.000
    C322     C        0.75810    0.25930    0.71245    1.000
    C323     C        0.69050    0.24120    0.69100    1.000
    H209     H        0.68420    0.21310    0.69100    1.000
    C324     C        0.63250    0.26410    0.66990    1.000
    H210     H        0.58800    0.25180    0.65520    1.000
    C325     C        0.64240    0.30580    0.67110    1.000
    H211     H        0.60310    0.32170    0.65720    1.000
    C326     C        0.70820    0.32440    0.69212    1.000
    C327     C        0.72010    0.36950    0.69377    1.000
    C328     C        0.74970    0.38830    0.66472    1.000
    H212     H        0.76070    0.37180    0.64610    1.000
    C329     C        0.76520    0.43040    0.66035    1.000
    C330     C        0.78960    0.44630    0.62645    1.000
    C331     C        0.75430    0.42740    0.59780    1.000
    H213     H        0.71900    0.40330    0.59970    1.000
    C332     C        0.98200    0.30900    0.82051    1.000
    H214     H        0.97550    0.28100    0.81770    1.000
    C333     C        0.98490    0.32460    0.85284    1.000
    H215     H        0.97820    0.30730    0.87120    1.000
    C334     C        0.99780    0.36600    0.85785    1.000
    C335     C        0.00550    0.38990    0.82900    1.000
    H216     H        0.01450    0.41780    0.83090    1.000
    C336     C        0.99990    0.37230    0.79766    1.000
    H217     H        0.00430    0.38890    0.77880    1.000
    C337     C        0.82890    0.47760    0.56310    1.000
    H218     H        0.84330    0.48740    0.54170    1.000
    C338     C        0.84660    0.48130    0.62360    1.000
    H219     H        0.87120    0.49380    0.64280    1.000
    C339     C        0.86710    0.49770    0.59170    1.000
    H220     H        0.90490    0.52120    0.58950    1.000
    C340     C        0.77050    0.44380    0.56670    1.000
    H221     H        0.74180    0.43200    0.54790    1.000
    Cd18     Cd       0.99093    0.80550    0.23946    1.000
    N35      N        0.76510    0.80088    0.21348    1.000
    N36      N        0.98830    0.83235    0.29329    1.000
    O86      O        0.90210    0.74482    0.24579    1.000
    O87      O        0.79690    0.69686    0.23604    1.000
    O88      O        0.82370    0.82016    0.23446    1.000
    O89      O        0.69500    0.88593    0.22157    1.000
    O90      O        0.75980    0.95661    0.18337    1.000
    C341     C        0.82280    0.73170    0.23333    1.000
    C342     C        0.75810    0.75930    0.21245    1.000
    C343     C        0.69050    0.74120    0.19100    1.000
    H222     H        0.68420    0.71310    0.19100    1.000
    C344     C        0.63250    0.76410    0.16990    1.000
    H223     H        0.58800    0.75180    0.15520    1.000
    C345     C        0.64240    0.80580    0.17110    1.000
    H224     H        0.60310    0.82170    0.15720    1.000
    C346     C        0.70820    0.82440    0.19212    1.000
    C347     C        0.72010    0.86950    0.19377    1.000
    C348     C        0.74970    0.88830    0.16472    1.000
    H225     H        0.76070    0.87180    0.14610    1.000
    C349     C        0.76520    0.93040    0.16035    1.000
    C350     C        0.78960    0.94630    0.12645    1.000
    C351     C        0.75430    0.92740    0.09780    1.000
    H226     H        0.71900    0.90330    0.09970    1.000
    C352     C        0.98200    0.80900    0.32051    1.000
    H227     H        0.97550    0.78100    0.31770    1.000
    C353     C        0.98490    0.82460    0.35284    1.000
    H228     H        0.97820    0.80730    0.37120    1.000
    C354     C        0.99780    0.86600    0.35785    1.000
    C355     C        0.00550    0.88990    0.32900    1.000
    H229     H        0.01450    0.91780    0.33090    1.000
    C356     C        0.99990    0.87230    0.29766    1.000
    H230     H        0.00430    0.88890    0.27880    1.000
    C357     C        0.82890    0.97760    0.06310    1.000
    H231     H        0.84330    0.98740    0.04170    1.000
    C358     C        0.84660    0.98130    0.12360    1.000
    H232     H        0.87120    0.99380    0.14280    1.000
    C359     C        0.86710    0.99770    0.09170    1.000
    H233     H        0.90490    0.02120    0.08950    1.000
    C360     C        0.77050    0.94380    0.06670    1.000
    H234     H        0.74180    0.93200    0.04790    1.000
    Cd19     Cd       0.49093    0.30550    0.23946    1.000
    N37      N        0.26510    0.30088    0.21348    1.000
    N38      N        0.48830    0.33235    0.29329    1.000
    O91      O        0.40210    0.24482    0.24579    1.000
    O92      O        0.29690    0.19686    0.23604    1.000
    O93      O        0.32370    0.32016    0.23446    1.000
    O94      O        0.19500    0.38593    0.22157    1.000
    O95      O        0.25980    0.45661    0.18337    1.000
    C361     C        0.32280    0.23170    0.23333    1.000
    C362     C        0.25810    0.25930    0.21245    1.000
    C363     C        0.19050    0.24120    0.19100    1.000
    H235     H        0.18420    0.21310    0.19100    1.000
    C364     C        0.13250    0.26410    0.16990    1.000
    H236     H        0.08800    0.25180    0.15520    1.000
    C365     C        0.14240    0.30580    0.17110    1.000
    H237     H        0.10310    0.32170    0.15720    1.000
    C366     C        0.20820    0.32440    0.19212    1.000
    C367     C        0.22010    0.36950    0.19377    1.000
    C368     C        0.24970    0.38830    0.16472    1.000
    H238     H        0.26070    0.37180    0.14610    1.000
    C369     C        0.26520    0.43040    0.16035    1.000
    C370     C        0.28960    0.44630    0.12645    1.000
    C371     C        0.25430    0.42740    0.09780    1.000
    H239     H        0.21900    0.40330    0.09970    1.000
    C372     C        0.48200    0.30900    0.32051    1.000
    H240     H        0.47550    0.28100    0.31770    1.000
    C373     C        0.48490    0.32460    0.35284    1.000
    H241     H        0.47820    0.30730    0.37120    1.000
    C374     C        0.49780    0.36600    0.35785    1.000
    C375     C        0.50550    0.38990    0.32900    1.000
    H242     H        0.51450    0.41780    0.33090    1.000
    C376     C        0.49990    0.37230    0.29766    1.000
    H243     H        0.50430    0.38890    0.27880    1.000
    C377     C        0.32890    0.47760    0.06310    1.000
    H244     H        0.34330    0.48740    0.04170    1.000
    C378     C        0.34660    0.48130    0.12360    1.000
    H245     H        0.37120    0.49380    0.14280    1.000
    C379     C        0.36710    0.49770    0.09170    1.000
    H246     H        0.40490    0.52120    0.08950    1.000
    C380     C        0.27050    0.44380    0.06670    1.000
    H247     H        0.24180    0.43200    0.04790    1.000
    Cd20     Cd       0.49093    0.80550    0.73946    1.000
    N39      N        0.26510    0.80088    0.71348    1.000
    N40      N        0.48830    0.83235    0.79329    1.000
    O96      O        0.40210    0.74482    0.74579    1.000
    O97      O        0.29690    0.69686    0.73604    1.000
    O98      O        0.32370    0.82016    0.73446    1.000
    O99      O        0.19500    0.88593    0.72157    1.000
    O100     O        0.25980    0.95661    0.68337    1.000
    C381     C        0.32280    0.73170    0.73333    1.000
    C382     C        0.25810    0.75930    0.71245    1.000
    C383     C        0.19050    0.74120    0.69100    1.000
    H248     H        0.18420    0.71310    0.69100    1.000
    C384     C        0.13250    0.76410    0.66990    1.000
    H249     H        0.08800    0.75180    0.65520    1.000
    C385     C        0.14240    0.80580    0.67110    1.000
    H250     H        0.10310    0.82170    0.65720    1.000
    C386     C        0.20820    0.82440    0.69212    1.000
    C387     C        0.22010    0.86950    0.69377    1.000
    C388     C        0.24970    0.88830    0.66472    1.000
    H251     H        0.26070    0.87180    0.64610    1.000
    C389     C        0.26520    0.93040    0.66035    1.000
    C390     C        0.28960    0.94630    0.62645    1.000
    C391     C        0.25430    0.92740    0.59780    1.000
    H252     H        0.21900    0.90330    0.59970    1.000
    C392     C        0.48200    0.80900    0.82051    1.000
    H253     H        0.47550    0.78100    0.81770    1.000
    C393     C        0.48490    0.82460    0.85284    1.000
    H254     H        0.47820    0.80730    0.87120    1.000
    C394     C        0.49780    0.86600    0.85785    1.000
    C395     C        0.50550    0.88990    0.82900    1.000
    H255     H        0.51450    0.91780    0.83090    1.000
    C396     C        0.49990    0.87230    0.79766    1.000
    H256     H        0.50430    0.88890    0.77880    1.000
    C397     C        0.32890    0.97760    0.56310    1.000
    H257     H        0.34330    0.98740    0.54170    1.000
    C398     C        0.34660    0.98130    0.62360    1.000
    H258     H        0.37120    0.99380    0.64280    1.000
    C399     C        0.36710    0.99770    0.59170    1.000
    H259     H        0.40490    0.02120    0.58950    1.000
    C400     C        0.27050    0.94380    0.56670    1.000
    H260     H        0.24180    0.93200    0.54790    1.000
    Cd21     Cd       0.25907    0.94450    0.73946    1.000
    N41      N        0.48490    0.94912    0.71348    1.000
    N42      N        0.26170    0.91765    0.79329    1.000
    O101     O        0.34790    0.00518    0.74579    1.000
    O102     O        0.45310    0.05314    0.73604    1.000
    O103     O        0.42630    0.92984    0.73446    1.000
    O104     O        0.55500    0.86407    0.72157    1.000
    O105     O        0.49020    0.79339    0.68337    1.000
    C401     C        0.42720    0.01830    0.73333    1.000
    C402     C        0.49190    0.99070    0.71245    1.000
    C403     C        0.55950    0.00880    0.69100    1.000
    H261     H        0.56580    0.03690    0.69100    1.000
    C404     C        0.61750    0.98590    0.66990    1.000
    H262     H        0.66200    0.99820    0.65520    1.000
    C405     C        0.60760    0.94420    0.67110    1.000
    H263     H        0.64690    0.92830    0.65720    1.000
    C406     C        0.54180    0.92560    0.69212    1.000
    C407     C        0.52990    0.88050    0.69377    1.000
    C408     C        0.50030    0.86170    0.66472    1.000
    H264     H        0.48930    0.87820    0.64610    1.000
    C409     C        0.48480    0.81960    0.66035    1.000
    C410     C        0.46040    0.80370    0.62645    1.000
    C411     C        0.49570    0.82260    0.59780    1.000
    H265     H        0.53100    0.84670    0.59970    1.000
    C412     C        0.26800    0.94100    0.82051    1.000
    H266     H        0.27450    0.96900    0.81770    1.000
    C413     C        0.26510    0.92540    0.85284    1.000
    H267     H        0.27180    0.94270    0.87120    1.000
    C414     C        0.25220    0.88400    0.85785    1.000
    C415     C        0.24450    0.86010    0.82900    1.000
    H268     H        0.23550    0.83220    0.83090    1.000
    C416     C        0.25010    0.87770    0.79766    1.000
    H269     H        0.24570    0.86110    0.77880    1.000
    C417     C        0.42110    0.77240    0.56310    1.000
    H270     H        0.40670    0.76260    0.54170    1.000
    C418     C        0.40340    0.76870    0.62360    1.000
    H271     H        0.37880    0.75620    0.64280    1.000
    C419     C        0.38290    0.75230    0.59170    1.000
    H272     H        0.34510    0.72880    0.58950    1.000
    C420     C        0.47950    0.80620    0.56670    1.000
    H273     H        0.50820    0.81800    0.54790    1.000
    Cd22     Cd       0.25907    0.44450    0.23946    1.000
    N43      N        0.48490    0.44912    0.21348    1.000
    N44      N        0.26170    0.41765    0.29329    1.000
    O106     O        0.34790    0.50518    0.24579    1.000
    O107     O        0.45310    0.55314    0.23604    1.000
    O108     O        0.42630    0.42984    0.23446    1.000
    O109     O        0.55500    0.36407    0.22157    1.000
    O110     O        0.49020    0.29339    0.18337    1.000
    C421     C        0.42720    0.51830    0.23333    1.000
    C422     C        0.49190    0.49070    0.21245    1.000
    C423     C        0.55950    0.50880    0.19100    1.000
    H274     H        0.56580    0.53690    0.19100    1.000
    C424     C        0.61750    0.48590    0.16990    1.000
    H275     H        0.66200    0.49820    0.15520    1.000
    C425     C        0.60760    0.44420    0.17110    1.000
    H276     H        0.64690    0.42830    0.15720    1.000
    C426     C        0.54180    0.42560    0.19212    1.000
    C427     C        0.52990    0.38050    0.19377    1.000
    C428     C        0.50030    0.36170    0.16472    1.000
    H277     H        0.48930    0.37820    0.14610    1.000
    C429     C        0.48480    0.31960    0.16035    1.000
    C430     C        0.46040    0.30370    0.12645    1.000
    C431     C        0.49570    0.32260    0.09780    1.000
    H278     H        0.53100    0.34670    0.09970    1.000
    C432     C        0.26800    0.44100    0.32051    1.000
    H279     H        0.27450    0.46900    0.31770    1.000
    C433     C        0.26510    0.42540    0.35284    1.000
    H280     H        0.27180    0.44270    0.37120    1.000
    C434     C        0.25220    0.38400    0.35785    1.000
    C435     C        0.24450    0.36010    0.32900    1.000
    H281     H        0.23550    0.33220    0.33090    1.000
    C436     C        0.25010    0.37770    0.29766    1.000
    H282     H        0.24570    0.36110    0.27880    1.000
    C437     C        0.42110    0.27240    0.06310    1.000
    H283     H        0.40670    0.26260    0.04170    1.000
    C438     C        0.40340    0.26870    0.12360    1.000
    H284     H        0.37880    0.25620    0.14280    1.000
    C439     C        0.38290    0.25230    0.09170    1.000
    H285     H        0.34510    0.22880    0.08950    1.000
    C440     C        0.47950    0.30620    0.06670    1.000
    H286     H        0.50820    0.31800    0.04790    1.000
    Cd23     Cd       0.75907    0.94450    0.23946    1.000
    N45      N        0.98490    0.94912    0.21348    1.000
    N46      N        0.76170    0.91765    0.29329    1.000
    O111     O        0.84790    0.00518    0.24579    1.000
    O112     O        0.95310    0.05314    0.23604    1.000
    O113     O        0.92630    0.92984    0.23446    1.000
    O114     O        0.05500    0.86407    0.22157    1.000
    O115     O        0.99020    0.79339    0.18337    1.000
    C441     C        0.92720    0.01830    0.23333    1.000
    C442     C        0.99190    0.99070    0.21245    1.000
    C443     C        0.05950    0.00880    0.19100    1.000
    H287     H        0.06580    0.03690    0.19100    1.000
    C444     C        0.11750    0.98590    0.16990    1.000
    H288     H        0.16200    0.99820    0.15520    1.000
    C445     C        0.10760    0.94420    0.17110    1.000
    H289     H        0.14690    0.92830    0.15720    1.000
    C446     C        0.04180    0.92560    0.19212    1.000
    C447     C        0.02990    0.88050    0.19377    1.000
    C448     C        0.00030    0.86170    0.16472    1.000
    H290     H        0.98930    0.87820    0.14610    1.000
    C449     C        0.98480    0.81960    0.16035    1.000
    C450     C        0.96040    0.80370    0.12645    1.000
    C451     C        0.99570    0.82260    0.09780    1.000
    H291     H        0.03100    0.84670    0.09970    1.000
    C452     C        0.76800    0.94100    0.32051    1.000
    H292     H        0.77450    0.96900    0.31770    1.000
    C453     C        0.76510    0.92540    0.35284    1.000
    H293     H        0.77180    0.94270    0.37120    1.000
    C454     C        0.75220    0.88400    0.35785    1.000
    C455     C        0.74450    0.86010    0.32900    1.000
    H294     H        0.73550    0.83220    0.33090    1.000
    C456     C        0.75010    0.87770    0.29766    1.000
    H295     H        0.74570    0.86110    0.27880    1.000
    C457     C        0.92110    0.77240    0.06310    1.000
    H296     H        0.90670    0.76260    0.04170    1.000
    C458     C        0.90340    0.76870    0.12360    1.000
    H297     H        0.87880    0.75620    0.14280    1.000
    C459     C        0.88290    0.75230    0.09170    1.000
    H298     H        0.84510    0.72880    0.08950    1.000
    C460     C        0.97950    0.80620    0.06670    1.000
    H299     H        0.00820    0.81800    0.04790    1.000
    Cd24     Cd       0.75907    0.44450    0.73946    1.000
    N47      N        0.98490    0.44912    0.71348    1.000
    N48      N        0.76170    0.41765    0.79329    1.000
    O116     O        0.84790    0.50518    0.74579    1.000
    O117     O        0.95310    0.55314    0.73604    1.000
    O118     O        0.92630    0.42984    0.73446    1.000
    O119     O        0.05500    0.36407    0.72157    1.000
    O120     O        0.99020    0.29339    0.68337    1.000
    C461     C        0.92720    0.51830    0.73333    1.000
    C462     C        0.99190    0.49070    0.71245    1.000
    C463     C        0.05950    0.50880    0.69100    1.000
    H300     H        0.06580    0.53690    0.69100    1.000
    C464     C        0.11750    0.48590    0.66990    1.000
    H301     H        0.16200    0.49820    0.65520    1.000
    C465     C        0.10760    0.44420    0.67110    1.000
    H302     H        0.14690    0.42830    0.65720    1.000
    C466     C        0.04180    0.42560    0.69212    1.000
    C467     C        0.02990    0.38050    0.69377    1.000
    C468     C        0.00030    0.36170    0.66472    1.000
    H303     H        0.98930    0.37820    0.64610    1.000
    C469     C        0.98480    0.31960    0.66035    1.000
    C470     C        0.96040    0.30370    0.62645    1.000
    C471     C        0.99570    0.32260    0.59780    1.000
    H304     H        0.03100    0.34670    0.59970    1.000
    C472     C        0.76800    0.44100    0.82051    1.000
    H305     H        0.77450    0.46900    0.81770    1.000
    C473     C        0.76510    0.42540    0.85284    1.000
    H306     H        0.77180    0.44270    0.87120    1.000
    C474     C        0.75220    0.38400    0.85785    1.000
    C475     C        0.74450    0.36010    0.82900    1.000
    H307     H        0.73550    0.33220    0.83090    1.000
    C476     C        0.75010    0.37770    0.79766    1.000
    H308     H        0.74570    0.36110    0.77880    1.000
    C477     C        0.92110    0.27240    0.56310    1.000
    H309     H        0.90670    0.26260    0.54170    1.000
    C478     C        0.90340    0.26870    0.62360    1.000
    H310     H        0.87880    0.25620    0.64280    1.000
    C479     C        0.88290    0.25230    0.59170    1.000
    H311     H        0.84510    0.22880    0.58950    1.000
    C480     C        0.97950    0.30620    0.56670    1.000
    H312     H        0.00820    0.31800    0.54790    1.000
    Cd25     Cd       0.25907    0.30550    0.51054    1.000
    N49      N        0.48490    0.30088    0.53652    1.000
    N50      N        0.26170    0.33235    0.45671    1.000
    O121     O        0.34790    0.24482    0.50421    1.000
    O122     O        0.45310    0.19686    0.51396    1.000
    O123     O        0.42630    0.32016    0.51554    1.000
    O124     O        0.55500    0.38593    0.52843    1.000
    O125     O        0.49020    0.45661    0.56663    1.000
    C481     C        0.42720    0.23170    0.51667    1.000
    C482     C        0.49190    0.25930    0.53755    1.000
    C483     C        0.55950    0.24120    0.55900    1.000
    H313     H        0.56580    0.21310    0.55900    1.000
    C484     C        0.61750    0.26410    0.58010    1.000
    H314     H        0.66200    0.25180    0.59480    1.000
    C485     C        0.60760    0.30580    0.57890    1.000
    H315     H        0.64690    0.32170    0.59280    1.000
    C486     C        0.54180    0.32440    0.55788    1.000
    C487     C        0.52990    0.36950    0.55623    1.000
    C488     C        0.50030    0.38830    0.58528    1.000
    H316     H        0.48930    0.37180    0.60390    1.000
    C489     C        0.48480    0.43040    0.58965    1.000
    C490     C        0.46040    0.44630    0.62355    1.000
    C491     C        0.49570    0.42740    0.65220    1.000
    H317     H        0.53100    0.40330    0.65030    1.000
    C492     C        0.26800    0.30900    0.42949    1.000
    H318     H        0.27450    0.28100    0.43230    1.000
    C493     C        0.26510    0.32460    0.39716    1.000
    H319     H        0.27180    0.30730    0.37880    1.000
    C494     C        0.25220    0.36600    0.39215    1.000
    C495     C        0.24450    0.38990    0.42100    1.000
    H320     H        0.23550    0.41780    0.41910    1.000
    C496     C        0.25010    0.37230    0.45234    1.000
    H321     H        0.24570    0.38890    0.47120    1.000
    C497     C        0.42110    0.47760    0.68690    1.000
    H322     H        0.40670    0.48740    0.70830    1.000
    C498     C        0.40340    0.48130    0.62640    1.000
    H323     H        0.37880    0.49380    0.60720    1.000
    C499     C        0.38290    0.49770    0.65830    1.000
    H324     H        0.34510    0.52120    0.66050    1.000
    C500     C        0.47950    0.44380    0.68330    1.000
    H325     H        0.50820    0.43200    0.70210    1.000
    Cd26     Cd       0.25907    0.80550    0.01054    1.000
    N51      N        0.48490    0.80088    0.03652    1.000
    N52      N        0.26170    0.83235    0.95671    1.000
    O126     O        0.34790    0.74482    0.00421    1.000
    O127     O        0.45310    0.69686    0.01396    1.000
    O128     O        0.42630    0.82016    0.01554    1.000
    O129     O        0.55500    0.88593    0.02843    1.000
    O130     O        0.49020    0.95661    0.06663    1.000
    C501     C        0.42720    0.73170    0.01667    1.000
    C502     C        0.49190    0.75930    0.03755    1.000
    C503     C        0.55950    0.74120    0.05900    1.000
    H326     H        0.56580    0.71310    0.05900    1.000
    C504     C        0.61750    0.76410    0.08010    1.000
    H327     H        0.66200    0.75180    0.09480    1.000
    C505     C        0.60760    0.80580    0.07890    1.000
    H328     H        0.64690    0.82170    0.09280    1.000
    C506     C        0.54180    0.82440    0.05788    1.000
    C507     C        0.52990    0.86950    0.05623    1.000
    C508     C        0.50030    0.88830    0.08528    1.000
    H329     H        0.48930    0.87180    0.10390    1.000
    C509     C        0.48480    0.93040    0.08965    1.000
    C510     C        0.46040    0.94630    0.12355    1.000
    C511     C        0.49570    0.92740    0.15220    1.000
    H330     H        0.53100    0.90330    0.15030    1.000
    C512     C        0.26800    0.80900    0.92949    1.000
    H331     H        0.27450    0.78100    0.93230    1.000
    C513     C        0.26510    0.82460    0.89716    1.000
    H332     H        0.27180    0.80730    0.87880    1.000
    C514     C        0.25220    0.86600    0.89215    1.000
    C515     C        0.24450    0.88990    0.92100    1.000
    H333     H        0.23550    0.91780    0.91910    1.000
    C516     C        0.25010    0.87230    0.95234    1.000
    H334     H        0.24570    0.88890    0.97120    1.000
    C517     C        0.42110    0.97760    0.18690    1.000
    H335     H        0.40670    0.98740    0.20830    1.000
    C518     C        0.40340    0.98130    0.12640    1.000
    H336     H        0.37880    0.99380    0.10720    1.000
    C519     C        0.38290    0.99770    0.15830    1.000
    H337     H        0.34510    0.02120    0.16050    1.000
    C520     C        0.47950    0.94380    0.18330    1.000
    H338     H        0.50820    0.93200    0.20210    1.000
    Cd27     Cd       0.75907    0.30550    0.01054    1.000
    N53      N        0.98490    0.30088    0.03652    1.000
    N54      N        0.76170    0.33235    0.95671    1.000
    O131     O        0.84790    0.24482    0.00421    1.000
    O132     O        0.95310    0.19686    0.01396    1.000
    O133     O        0.92630    0.32016    0.01554    1.000
    O134     O        0.05500    0.38593    0.02843    1.000
    O135     O        0.99020    0.45661    0.06663    1.000
    C521     C        0.92720    0.23170    0.01667    1.000
    C522     C        0.99190    0.25930    0.03755    1.000
    C523     C        0.05950    0.24120    0.05900    1.000
    H339     H        0.06580    0.21310    0.05900    1.000
    C524     C        0.11750    0.26410    0.08010    1.000
    H340     H        0.16200    0.25180    0.09480    1.000
    C525     C        0.10760    0.30580    0.07890    1.000
    H341     H        0.14690    0.32170    0.09280    1.000
    C526     C        0.04180    0.32440    0.05788    1.000
    C527     C        0.02990    0.36950    0.05623    1.000
    C528     C        0.00030    0.38830    0.08528    1.000
    H342     H        0.98930    0.37180    0.10390    1.000
    C529     C        0.98480    0.43040    0.08965    1.000
    C530     C        0.96040    0.44630    0.12355    1.000
    C531     C        0.99570    0.42740    0.15220    1.000
    H343     H        0.03100    0.40330    0.15030    1.000
    C532     C        0.76800    0.30900    0.92949    1.000
    H344     H        0.77450    0.28100    0.93230    1.000
    C533     C        0.76510    0.32460    0.89716    1.000
    H345     H        0.77180    0.30730    0.87880    1.000
    C534     C        0.75220    0.36600    0.89215    1.000
    C535     C        0.74450    0.38990    0.92100    1.000
    H346     H        0.73550    0.41780    0.91910    1.000
    C536     C        0.75010    0.37230    0.95234    1.000
    H347     H        0.74570    0.38890    0.97120    1.000
    C537     C        0.92110    0.47760    0.18690    1.000
    H348     H        0.90670    0.48740    0.20830    1.000
    C538     C        0.90340    0.48130    0.12640    1.000
    H349     H        0.87880    0.49380    0.10720    1.000
    C539     C        0.88290    0.49770    0.15830    1.000
    H350     H        0.84510    0.52120    0.16050    1.000
    C540     C        0.97950    0.44380    0.18330    1.000
    H351     H        0.00820    0.43200    0.20210    1.000
    Cd28     Cd       0.75907    0.80550    0.51054    1.000
    N55      N        0.98490    0.80088    0.53652    1.000
    N56      N        0.76170    0.83235    0.45671    1.000
    O136     O        0.84790    0.74482    0.50421    1.000
    O137     O        0.95310    0.69686    0.51396    1.000
    O138     O        0.92630    0.82016    0.51554    1.000
    O139     O        0.05500    0.88593    0.52843    1.000
    O140     O        0.99020    0.95661    0.56663    1.000
    C541     C        0.92720    0.73170    0.51667    1.000
    C542     C        0.99190    0.75930    0.53755    1.000
    C543     C        0.05950    0.74120    0.55900    1.000
    H352     H        0.06580    0.71310    0.55900    1.000
    C544     C        0.11750    0.76410    0.58010    1.000
    H353     H        0.16200    0.75180    0.59480    1.000
    C545     C        0.10760    0.80580    0.57890    1.000
    H354     H        0.14690    0.82170    0.59280    1.000
    C546     C        0.04180    0.82440    0.55788    1.000
    C547     C        0.02990    0.86950    0.55623    1.000
    C548     C        0.00030    0.88830    0.58528    1.000
    H355     H        0.98930    0.87180    0.60390    1.000
    C549     C        0.98480    0.93040    0.58965    1.000
    C550     C        0.96040    0.94630    0.62355    1.000
    C551     C        0.99570    0.92740    0.65220    1.000
    H356     H        0.03100    0.90330    0.65030    1.000
    C552     C        0.76800    0.80900    0.42949    1.000
    H357     H        0.77450    0.78100    0.43230    1.000
    C553     C        0.76510    0.82460    0.39716    1.000
    H358     H        0.77180    0.80730    0.37880    1.000
    C554     C        0.75220    0.86600    0.39215    1.000
    C555     C        0.74450    0.88990    0.42100    1.000
    H359     H        0.73550    0.91780    0.41910    1.000
    C556     C        0.75010    0.87230    0.45234    1.000
    H360     H        0.74570    0.88890    0.47120    1.000
    C557     C        0.92110    0.97760    0.68690    1.000
    H361     H        0.90670    0.98740    0.70830    1.000
    C558     C        0.90340    0.98130    0.62640    1.000
    H362     H        0.87880    0.99380    0.60720    1.000
    C559     C        0.88290    0.99770    0.65830    1.000
    H363     H        0.84510    0.02120    0.66050    1.000
    C560     C        0.97950    0.94380    0.68330    1.000
    H364     H        0.00820    0.93200    0.70210    1.000
    Cd29     Cd       0.99093    0.94450    0.51054    1.000
    N57      N        0.76510    0.94912    0.53652    1.000
    N58      N        0.98830    0.91765    0.45671    1.000
    O141     O        0.90210    0.00518    0.50421    1.000
    O142     O        0.79690    0.05314    0.51396    1.000
    O143     O        0.82370    0.92984    0.51554    1.000
    O144     O        0.69500    0.86407    0.52843    1.000
    O145     O        0.75980    0.79339    0.56663    1.000
    C561     C        0.82280    0.01830    0.51667    1.000
    C562     C        0.75810    0.99070    0.53755    1.000
    C563     C        0.69050    0.00880    0.55900    1.000
    H365     H        0.68420    0.03690    0.55900    1.000
    C564     C        0.63250    0.98590    0.58010    1.000
    H366     H        0.58800    0.99820    0.59480    1.000
    C565     C        0.64240    0.94420    0.57890    1.000
    H367     H        0.60310    0.92830    0.59280    1.000
    C566     C        0.70820    0.92560    0.55788    1.000
    C567     C        0.72010    0.88050    0.55623    1.000
    C568     C        0.74970    0.86170    0.58528    1.000
    H368     H        0.76070    0.87820    0.60390    1.000
    C569     C        0.76520    0.81960    0.58965    1.000
    C570     C        0.78960    0.80370    0.62355    1.000
    C571     C        0.75430    0.82260    0.65220    1.000
    H369     H        0.71900    0.84670    0.65030    1.000
    C572     C        0.98200    0.94100    0.42949    1.000
    H370     H        0.97550    0.96900    0.43230    1.000
    C573     C        0.98490    0.92540    0.39716    1.000
    H371     H        0.97820    0.94270    0.37880    1.000
    C574     C        0.99780    0.88400    0.39215    1.000
    C575     C        0.00550    0.86010    0.42100    1.000
    H372     H        0.01450    0.83220    0.41910    1.000
    C576     C        0.99990    0.87770    0.45234    1.000
    H373     H        0.00430    0.86110    0.47120    1.000
    C577     C        0.82890    0.77240    0.68690    1.000
    H374     H        0.84330    0.76260    0.70830    1.000
    C578     C        0.84660    0.76870    0.62640    1.000
    H375     H        0.87120    0.75620    0.60720    1.000
    C579     C        0.86710    0.75230    0.65830    1.000
    H376     H        0.90490    0.72880    0.66050    1.000
    C580     C        0.77050    0.80620    0.68330    1.000
    H377     H        0.74180    0.81800    0.70210    1.000
    Cd30     Cd       0.99093    0.44450    0.01054    1.000
    N59      N        0.76510    0.44912    0.03652    1.000
    N60      N        0.98830    0.41765    0.95671    1.000
    O146     O        0.90210    0.50518    0.00421    1.000
    O147     O        0.79690    0.55314    0.01396    1.000
    O148     O        0.82370    0.42984    0.01554    1.000
    O149     O        0.69500    0.36407    0.02843    1.000
    O150     O        0.75980    0.29339    0.06663    1.000
    C581     C        0.82280    0.51830    0.01667    1.000
    C582     C        0.75810    0.49070    0.03755    1.000
    C583     C        0.69050    0.50880    0.05900    1.000
    H378     H        0.68420    0.53690    0.05900    1.000
    C584     C        0.63250    0.48590    0.08010    1.000
    H379     H        0.58800    0.49820    0.09480    1.000
    C585     C        0.64240    0.44420    0.07890    1.000
    H380     H        0.60310    0.42830    0.09280    1.000
    C586     C        0.70820    0.42560    0.05788    1.000
    C587     C        0.72010    0.38050    0.05623    1.000
    C588     C        0.74970    0.36170    0.08528    1.000
    H381     H        0.76070    0.37820    0.10390    1.000
    C589     C        0.76520    0.31960    0.08965    1.000
    C590     C        0.78960    0.30370    0.12355    1.000
    C591     C        0.75430    0.32260    0.15220    1.000
    H382     H        0.71900    0.34670    0.15030    1.000
    C592     C        0.98200    0.44100    0.92949    1.000
    H383     H        0.97550    0.46900    0.93230    1.000
    C593     C        0.98490    0.42540    0.89716    1.000
    H384     H        0.97820    0.44270    0.87880    1.000
    C594     C        0.99780    0.38400    0.89215    1.000
    C595     C        0.00550    0.36010    0.92100    1.000
    H385     H        0.01450    0.33220    0.91910    1.000
    C596     C        0.99990    0.37770    0.95234    1.000
    H386     H        0.00430    0.36110    0.97120    1.000
    C597     C        0.82890    0.27240    0.18690    1.000
    H387     H        0.84330    0.26260    0.20830    1.000
    C598     C        0.84660    0.26870    0.12640    1.000
    H388     H        0.87120    0.25620    0.10720    1.000
    C599     C        0.86710    0.25230    0.15830    1.000
    H389     H        0.90490    0.22880    0.16050    1.000
    C600     C        0.77050    0.30620    0.18330    1.000
    H390     H        0.74180    0.31800    0.20210    1.000
    Cd31     Cd       0.49093    0.94450    0.01054    1.000
    N61      N        0.26510    0.94912    0.03652    1.000
    N62      N        0.48830    0.91765    0.95671    1.000
    O151     O        0.40210    0.00518    0.00421    1.000
    O152     O        0.29690    0.05314    0.01396    1.000
    O153     O        0.32370    0.92984    0.01554    1.000
    O154     O        0.19500    0.86407    0.02843    1.000
    O155     O        0.25980    0.79339    0.06663    1.000
    C601     C        0.32280    0.01830    0.01667    1.000
    C602     C        0.25810    0.99070    0.03755    1.000
    C603     C        0.19050    0.00880    0.05900    1.000
    H391     H        0.18420    0.03690    0.05900    1.000
    C604     C        0.13250    0.98590    0.08010    1.000
    H392     H        0.08800    0.99820    0.09480    1.000
    C605     C        0.14240    0.94420    0.07890    1.000
    H393     H        0.10310    0.92830    0.09280    1.000
    C606     C        0.20820    0.92560    0.05788    1.000
    C607     C        0.22010    0.88050    0.05623    1.000
    C608     C        0.24970    0.86170    0.08528    1.000
    H394     H        0.26070    0.87820    0.10390    1.000
    C609     C        0.26520    0.81960    0.08965    1.000
    C610     C        0.28960    0.80370    0.12355    1.000
    C611     C        0.25430    0.82260    0.15220    1.000
    H395     H        0.21900    0.84670    0.15030    1.000
    C612     C        0.48200    0.94100    0.92949    1.000
    H396     H        0.47550    0.96900    0.93230    1.000
    C613     C        0.48490    0.92540    0.89716    1.000
    H397     H        0.47820    0.94270    0.87880    1.000
    C614     C        0.49780    0.88400    0.89215    1.000
    C615     C        0.50550    0.86010    0.92100    1.000
    H398     H        0.51450    0.83220    0.91910    1.000
    C616     C        0.49990    0.87770    0.95234    1.000
    H399     H        0.50430    0.86110    0.97120    1.000
    C617     C        0.32890    0.77240    0.18690    1.000
    H400     H        0.34330    0.76260    0.20830    1.000
    C618     C        0.34660    0.76870    0.12640    1.000
    H401     H        0.37120    0.75620    0.10720    1.000
    C619     C        0.36710    0.75230    0.15830    1.000
    H402     H        0.40490    0.72880    0.16050    1.000
    C620     C        0.27050    0.80620    0.18330    1.000
    H403     H        0.24180    0.81800    0.20210    1.000
    Cd32     Cd       0.49093    0.44450    0.51054    1.000
    N63      N        0.26510    0.44912    0.53652    1.000
    N64      N        0.48830    0.41765    0.45671    1.000
    O156     O        0.40210    0.50518    0.50421    1.000
    O157     O        0.29690    0.55314    0.51396    1.000
    O158     O        0.32370    0.42984    0.51554    1.000
    O159     O        0.19500    0.36407    0.52843    1.000
    O160     O        0.25980    0.29339    0.56663    1.000
    C621     C        0.32280    0.51830    0.51667    1.000
    C622     C        0.25810    0.49070    0.53755    1.000
    C623     C        0.19050    0.50880    0.55900    1.000
    H404     H        0.18420    0.53690    0.55900    1.000
    C624     C        0.13250    0.48590    0.58010    1.000
    H405     H        0.08800    0.49820    0.59480    1.000
    C625     C        0.14240    0.44420    0.57890    1.000
    H406     H        0.10310    0.42830    0.59280    1.000
    C626     C        0.20820    0.42560    0.55788    1.000
    C627     C        0.22010    0.38050    0.55623    1.000
    C628     C        0.24970    0.36170    0.58528    1.000
    H407     H        0.26070    0.37820    0.60390    1.000
    C629     C        0.26520    0.31960    0.58965    1.000
    C630     C        0.28960    0.30370    0.62355    1.000
    C631     C        0.25430    0.32260    0.65220    1.000
    H408     H        0.21900    0.34670    0.65030    1.000
    C632     C        0.48200    0.44100    0.42949    1.000
    H409     H        0.47550    0.46900    0.43230    1.000
    C633     C        0.48490    0.42540    0.39716    1.000
    H410     H        0.47820    0.44270    0.37880    1.000
    C634     C        0.49780    0.38400    0.39215    1.000
    C635     C        0.50550    0.36010    0.42100    1.000
    H411     H        0.51450    0.33220    0.41910    1.000
    C636     C        0.49990    0.37770    0.45234    1.000
    H412     H        0.50430    0.36110    0.47120    1.000
    C637     C        0.32890    0.27240    0.68690    1.000
    H413     H        0.34330    0.26260    0.70830    1.000
    C638     C        0.34660    0.26870    0.62640    1.000
    H414     H        0.37120    0.25620    0.60720    1.000
    C639     C        0.36710    0.25230    0.65830    1.000
    H415     H        0.40490    0.22880    0.66050    1.000
    C640     C        0.27050    0.30620    0.68330    1.000
    H416     H        0.24180    0.31800    0.70210    1.000
