# CIF file generated by openbabel 3.1.0, see https://openbabel.org
data_I
_chemical_name_common 'image0'
_cell_length_a 12.3331
_cell_length_b 14.7388
_cell_length_c 14.9946
_cell_angle_alpha 111.546
_cell_angle_beta 105.075
_cell_angle_gamma 106.267
_space_group_name_H-M_alt 'P 1'
_space_group_name_Hall 'P 1'
loop_
    _symmetry_equiv_pos_as_xyz
    x,y,z
loop_
    _atom_site_label
    _atom_site_type_symbol
    _atom_site_fract_x
    _atom_site_fract_y
    _atom_site_fract_z
    _atom_site_occupancy
    U1       U        0.44523    0.03342    0.45241    1.000
    U2       U        0.65923    0.79601    0.86780    1.000
    U3       U        0.69015    0.45513    0.20302    1.000
    U4       U        0.13737    0.68460    0.80829    1.000
    O1       O        0.60350    0.16990    0.43150    1.000
    O2       O        0.59120    0.00600    0.37630    1.000
    O3       O        0.65870    0.87320    0.04460    1.000
    O4       O        0.75580    0.99050    0.00390    1.000
    O5       O        0.43340    0.84650    0.40000    1.000
    O6       O        0.30500    0.88980    0.46580    1.000
    O7       O        0.14130    0.56850    0.64290    1.000
    O8       O        0.23590    0.74180    0.70410    1.000
    O9       O        0.30450    0.08920    0.52500    1.000
    O10      O        0.44920    0.21600    0.52610    1.000
    O11      O        0.55810    0.60050    0.75490    1.000
    O12      O        0.53160    0.65470    0.90170    1.000
    O13      O        0.77280    0.91100    0.81040    1.000
    O14      O        0.68440    0.73820    0.70270    1.000
    O15      O        0.83110    0.65440    0.31430    1.000
    O16      O        0.69480    0.57870    0.36420    1.000
    O17      O        0.53050    0.37390    0.25540    1.000
    O18      O        0.54050    0.26760    0.11350    1.000
    O19      O        0.23490    0.88140    0.88870    1.000
    O20      O        0.14990    0.81600    0.97360    1.000
    O21      O        0.03020    0.61220    0.89830    1.000
    O22      O        0.01890    0.49250    0.75370    1.000
    O23      O        0.70230    0.33720    0.04390    1.000
    O24      O        0.83670    0.50570    0.12410    1.000
    C1       C        0.73980    0.12260    0.34770    1.000
    C2       C        0.68450    0.04160    0.23130    1.000
    H1       H        0.61430    0.05180    0.19290    1.000
    H2       H        0.65270    0.96780    0.22230    1.000
    C3       C        0.78140    0.05570    0.18580    1.000
    C4       C        0.83020    0.16950    0.19940    1.000
    H3       H        0.76200    0.18130    0.16050    1.000
    H4       H        0.89400    0.17930    0.17080    1.000
    C5       C        0.88610    0.25050    0.31650    1.000
    H5       H        0.91650    0.32490    0.32500    1.000
    C6       C        0.78990    0.23630    0.36120    1.000
    H6       H        0.72130    0.24930    0.32470    1.000
    H7       H        0.82700    0.28920    0.43660    1.000
    C7       C        0.84620    0.10420    0.40700    1.000
    H8       H        0.81520    0.03010    0.39740    1.000
    H9       H        0.88150    0.15500    0.48300    1.000
    C8       C        0.94800    0.12200    0.36300    1.000
    H10      H        0.01810    0.11080    0.40180    1.000
    C9       C        0.89000    0.03780    0.24550    1.000
    H11      H        0.85930    0.96450    0.23780    1.000
    H12      H        0.95300    0.04540    0.21600    1.000
    C10      C        0.99650    0.23490    0.37590    1.000
    H13      H        0.05970    0.24450    0.34670    1.000
    H14      H        0.03500    0.28850    0.45120    1.000
    C11      C        0.63880    0.09870    0.38710    1.000
    C12      C        0.72920    0.97080    0.07230    1.000
    C13      C        0.29870    0.71530    0.43010    1.000
    C14      C        0.28090    0.73450    0.53350    1.000
    H15      H        0.36210    0.77920    0.59400    1.000
    H16      H        0.22800    0.77400    0.54170    1.000
    C15      C        0.22060    0.62730    0.53250    1.000
    C16      C        0.09420    0.55890    0.43950    1.000
    H17      H        0.03980    0.59700    0.44690    1.000
    H18      H        0.05490    0.49000    0.43870    1.000
    C17      C        0.10970    0.53710    0.33580    1.000
    H19      H        0.02720    0.49090    0.27520    1.000
    C18      C        0.16720    0.64580    0.33690    1.000
    H20      H        0.11350    0.68430    0.34590    1.000
    H21      H        0.17440    0.63300    0.26960    1.000
    C19      C        0.37790    0.65480    0.41760    1.000
    H22      H        0.46120    0.69900    0.47560    1.000
    H23      H        0.38720    0.64030    0.35070    1.000
    C20      C        0.32070    0.54930    0.41800    1.000
    H24      H        0.37600    0.51140    0.41030    1.000
    C21      C        0.30480    0.56710    0.52030    1.000
    H25      H        0.38630    0.61000    0.58070    1.000
    H26      H        0.26690    0.49720    0.51820    1.000
    C22      C        0.19680    0.48000    0.32530    1.000
    H27      H        0.16010    0.40970    0.32280    1.000
    H28      H        0.20790    0.46720    0.25930    1.000
    C23      C        0.35040    0.82300    0.43180    1.000
    C24      C        0.20070    0.64740    0.63140    1.000
    C25      C        0.36540    0.26800    0.65580    1.000
    C26      C        0.44070    0.38490    0.68590    1.000
    H29      H        0.40660    0.39940    0.62770    1.000
    H30      H        0.52750    0.39690    0.69760    1.000
    C27      C        0.43720    0.46240    0.78610    1.000
    C28      C        0.49220    0.43950    0.87680    1.000
    H31      H        0.58000    0.45420    0.89120    1.000
    H32      H        0.48840    0.48780    0.94130    1.000
    C29      C        0.42010    0.32260    0.84760    1.000
    H33      H        0.45720    0.30850    0.90610    1.000
    C30      C        0.42120    0.24690    0.74800    1.000
    H34      H        0.37260    0.17180    0.73000    1.000
    H35      H        0.50720    0.25650    0.75900    1.000
    C31      C        0.23250    0.25070    0.64290    1.000
    H36      H        0.19300    0.26240    0.58410    1.000
    H37      H        0.18480    0.17550    0.62500    1.000
    C32      C        0.22850    0.32650    0.74240    1.000
    H38      H        0.14100    0.31460    0.73080    1.000
    C33      C        0.30420    0.44280    0.76940    1.000
    H39      H        0.26660    0.45660    0.71170    1.000
    H40      H        0.30250    0.49320    0.83400    1.000
    C34      C        0.28450    0.30560    0.83100    1.000
    H41      H        0.23540    0.23110    0.81410    1.000
    H42      H        0.28320    0.35520    0.89630    1.000
    C35      C        0.36740    0.18700    0.56190    1.000
    C36      C        0.51330    0.57810    0.81490    1.000
    C37      C        0.79770    0.85280    0.64620    1.000
    C38      C        0.76700    0.74610    0.55290    1.000
    H43      H        0.80470    0.70450    0.57840    1.000
    H44      H        0.67630    0.70350    0.51740    1.000
    C39      C        0.81540    0.76570    0.47500    1.000
    C40      C        0.75280    0.83100    0.43540    1.000
    H45      H        0.78290    0.84470    0.38450    1.000
    H46      H        0.66210    0.78860    0.39940    1.000
    C41      C        0.78370    0.93780    0.52830    1.000
    H47      H        0.74360    0.97910    0.50290    1.000
    C42      C        0.73690    0.91630    0.60790    1.000
    H48      H        0.75720    0.98530    0.66820    1.000
    H49      H        0.64600    0.87510    0.57410    1.000
    C43      C        0.93760    0.91940    0.70150    1.000
    H50      H        0.97840    0.87990    0.72810    1.000
    H51      H        0.95760    0.98830    0.76190    1.000
    C44      C        0.98410    0.94060    0.62220    1.000
    H52      H        0.07560    0.98430    0.65860    1.000
    C45      C        0.95810    0.83450    0.53100    1.000
    H53      H        0.99980    0.79550    0.55760    1.000
    H54      H        0.99000    0.84840    0.48100    1.000
    C46      C        0.92530    0.00360    0.58370    1.000
    H55      H        0.95720    0.01840    0.53400    1.000
    H56      H        0.94600    0.07310    0.64360    1.000
    C47      C        0.74830    0.83270    0.72280    1.000
    C48      C        0.77960    0.66270    0.38110    1.000
    C49      C        0.35390    0.20130    0.13900    1.000
    C50      C        0.34200    0.08760    0.07200    1.000
    H57      H        0.36320    0.08500    0.01210    1.000
    H58      H        0.40050    0.07040    0.11500    1.000
    C51      C        0.21240    0.00650    0.03210    1.000
    C52      C        0.12240    0.03320    0.96780    1.000
    H59      H        0.03690    0.98020    0.94280    1.000
    H60      H        0.13910    0.02940    0.90570    1.000
    C53      C        0.13560    0.14710    0.03530    1.000
    H61      H        0.07590    0.16430    0.99230    1.000
    C54      C        0.26470    0.22850    0.07390    1.000
    H62      H        0.27250    0.30130    0.11700    1.000
    H63      H        0.28420    0.22740    0.01350    1.000
    C55      C        0.32660    0.20420    0.23440    1.000
    H64      H        0.38600    0.18710    0.27660    1.000
    H65      H        0.33530    0.27680    0.27940    1.000
    C56      C        0.19360    0.12080    0.19450    1.000
    H66      H        0.17360    0.12310    0.25560    1.000
    C57      C        0.17800    0.00710    0.12530    1.000
    H67      H        0.09150    0.95500    0.09820    1.000
    H68      H        0.23270    0.98620    0.16710    1.000
    C58      C        0.10490    0.14810    0.12870    1.000
    H69      H        0.11100    0.22010    0.17260    1.000
    H70      H        0.01900    0.09520    0.10250    1.000
    C59      C        0.48240    0.28410    0.17300    1.000
    C60      C        0.19960    0.89650    0.96290    1.000
    C61      C        0.95430    0.42810    0.86630    1.000
    C62      C        0.89030    0.46120    0.94110    1.000
    H71      H        0.94730    0.53180    0.00300    1.000
    H72      H        0.81580    0.46770    0.90450    1.000
    C63      C        0.85370    0.37560    0.97650    1.000
    C64      C        0.96880    0.36880    0.03570    1.000
    H73      H        0.94620    0.31560    0.06070    1.000
    H74      H        0.02600    0.43950    0.09750    1.000
    C65      C        0.03300    0.33420    0.95980    1.000
    H75      H        0.10820    0.32810    0.99770    1.000
    C66      C        0.07190    0.41920    0.92580    1.000
    H76      H        0.11460    0.39900    0.87920    1.000
    H77      H        0.12970    0.48930    0.98800    1.000
    C67      C        0.86690    0.31980    0.77120    1.000
    H78      H        0.79210    0.32460    0.73260    1.000
    H79      H        0.90790    0.29900    0.72330    1.000
    C68      C        0.83050    0.23580    0.80570    1.000
    H80      H        0.77210    0.16490    0.74300    1.000
    C69      C        0.76860    0.26820    0.87990    1.000
    H81      H        0.69270    0.27260    0.84280    1.000
    H82      H        0.74410    0.21250    0.90170    1.000
    C70      C        0.94460    0.22580    0.86580    1.000
    H83      H        0.91900    0.17190    0.88940    1.000
    H84      H        0.98600    0.20170    0.81910    1.000
    C71      C        0.00140    0.51310    0.83520    1.000
    C72      C        0.79340    0.40800    0.05150    1.000
