# CIF file generated by openbabel 3.1.0, see https://openbabel.org
data_I
_chemical_name_common 'image0'
_cell_length_a 38.9881
_cell_length_b 38.9881
_cell_length_c 22.2962
_cell_angle_alpha 90
_cell_angle_beta 90
_cell_angle_gamma 120
_space_group_name_H-M_alt 'P 1'
_space_group_name_Hall 'P 1'
loop_
    _symmetry_equiv_pos_as_xyz
    x,y,z
loop_
    _atom_site_label
    _atom_site_type_symbol
    _atom_site_fract_x
    _atom_site_fract_y
    _atom_site_fract_z
    _atom_site_occupancy
    Mn1      Mn       0.66392    0.73824    0.09236    1.000
    Mn2      Mn       0.58001    0.65563    0.03378    1.000
    O1       O        0.39461    0.91990    0.99762    1.000
    O2       O        0.37348    0.89757    0.08970    1.000
    O3       O        0.68342    0.94699    0.91477    1.000
    O4       O        0.71682    0.00845    0.94560    1.000
    O5       O        0.66782    0.04718    0.12943    1.000
    O6       O        0.61038    0.00212    0.16789    1.000
    O7       O        0.57184    0.70428    0.01038    1.000
    O8       O        0.61268    0.74257    0.08365    1.000
    C1       C        0.58846    0.73516    0.04267    1.000
    C2       C        0.57754    0.76614    0.02633    1.000
    C3       C        0.55582    0.76316    0.97364    1.000
    H1       H        0.54780    0.74190    0.94750    1.000
    C4       C        0.54700    0.79271    0.96234    1.000
    H2       H        0.53290    0.79110    0.92780    1.000
    C5       C        0.55818    0.82428    0.99985    1.000
    C6       C        0.57927    0.82658    0.04937    1.000
    H3       H        0.58700    0.84790    0.07520    1.000
    C7       C        0.58984    0.79837    0.06319    1.000
    H4       H        0.60510    0.80130    0.09700    1.000
    C8       C        0.54660    0.85563    0.98649    1.000
    H5       H        0.56050    0.86980    0.95060    1.000
    H6       H        0.51850    0.84220    0.97770    1.000
    C9       C        0.52654    0.87268    0.07963    1.000
    H7       H        0.54060    0.88550    0.11610    1.000
    H8       H        0.51480    0.84440    0.08570    1.000
    C10      C        0.49390    0.88152    0.07191    1.000
    C11      C        0.46625    0.87314    0.11464    1.000
    H9       H        0.46810    0.86230    0.15080    1.000
    C12      C        0.43518    0.88041    0.10578    1.000
    H10      H        0.41630    0.87350    0.13580    1.000
    C13      C        0.43157    0.89675    0.05611    1.000
    C14      C        0.45882    0.90663    0.01050    1.000
    H11      H        0.45680    0.91820    0.97510    1.000
    C15      C        0.48938    0.89857    0.01967    1.000
    H12      H        0.50790    0.90490    0.98920    1.000
    C16      C        0.59075    0.92076    0.03437    1.000
    C17      C        0.59672    0.94909    0.07733    1.000
    H13      H        0.57670    0.94370    0.10490    1.000
    C18      C        0.63122    0.98473    0.08010    1.000
    C19      C        0.66093    0.99328    0.03736    1.000
    H14      H        0.68420    0.01770    0.03750    1.000
    C20      C        0.65511    0.96520    0.99555    1.000
    C21      C        0.62103    0.92933    0.99430    1.000
    H15      H        0.61820    0.91050    0.96620    1.000
    C22      C        0.39760    0.90537    0.04851    1.000
    C23      C        0.68669    0.97374    0.94921    1.000
    C24      C        0.63692    0.01381    0.12945    1.000
    N1       N        0.55461    0.88388    0.03299    1.000
    Mn3      Mn       0.33059    0.07157    0.42569    1.000
    Mn4      Mn       0.24667    0.98897    0.36712    1.000
    O9       O        0.06128    0.25323    0.33095    1.000
    O10      O        0.04015    0.23090    0.42303    1.000
    O11      O        0.35009    0.28032    0.24810    1.000
    O12      O        0.38349    0.34178    0.27893    1.000
    O13      O        0.33449    0.38051    0.46276    1.000
    O14      O        0.27705    0.33545    0.50122    1.000
    O15      O        0.23851    0.03761    0.34371    1.000
    O16      O        0.27935    0.07590    0.41698    1.000
    C25      C        0.25513    0.06849    0.37600    1.000
    C26      C        0.24421    0.09947    0.35966    1.000
    C27      C        0.22249    0.09649    0.30697    1.000
    H16      H        0.21447    0.07523    0.28083    1.000
    C28      C        0.21367    0.12604    0.29567    1.000
    H17      H        0.19957    0.12443    0.26113    1.000
    C29      C        0.22485    0.15761    0.33318    1.000
    C30      C        0.24594    0.15991    0.38270    1.000
    H18      H        0.25367    0.18123    0.40853    1.000
    C31      C        0.25651    0.13170    0.39652    1.000
    H19      H        0.27177    0.13463    0.43033    1.000
    C32      C        0.21327    0.18896    0.31982    1.000
    H20      H        0.22717    0.20313    0.28393    1.000
    H21      H        0.18517    0.17553    0.31103    1.000
    C33      C        0.19321    0.20601    0.41296    1.000
    H22      H        0.20727    0.21883    0.44943    1.000
    H23      H        0.18147    0.17773    0.41903    1.000
    C34      C        0.16057    0.21485    0.40524    1.000
    C35      C        0.13292    0.20647    0.44797    1.000
    H24      H        0.13477    0.19563    0.48413    1.000
    C36      C        0.10185    0.21374    0.43911    1.000
    H25      H        0.08297    0.20683    0.46913    1.000
    C37      C        0.09824    0.23008    0.38944    1.000
    C38      C        0.12549    0.23996    0.34383    1.000
    H26      H        0.12347    0.25153    0.30843    1.000
    C39      C        0.15605    0.23190    0.35300    1.000
    H27      H        0.17457    0.23823    0.32253    1.000
    C40      C        0.25742    0.25409    0.36770    1.000
    C41      C        0.26339    0.28242    0.41066    1.000
    H28      H        0.24337    0.27703    0.43823    1.000
    C42      C        0.29789    0.31806    0.41343    1.000
    C43      C        0.32760    0.32661    0.37069    1.000
    H29      H        0.35087    0.35103    0.37083    1.000
    C44      C        0.32178    0.29853    0.32888    1.000
    C45      C        0.28770    0.26266    0.32763    1.000
    H30      H        0.28487    0.24383    0.29953    1.000
    C46      C        0.06427    0.23870    0.38184    1.000
    C47      C        0.35336    0.30707    0.28254    1.000
    C48      C        0.30359    0.34714    0.46278    1.000
    N2       N        0.22128    0.21721    0.36632    1.000
    Mn5      Mn       0.99725    0.40490    0.75903    1.000
    Mn6      Mn       0.91334    0.32230    0.70045    1.000
    O17      O        0.72794    0.58657    0.66429    1.000
    O18      O        0.70681    0.56424    0.75637    1.000
    O19      O        0.01675    0.61366    0.58144    1.000
    O20      O        0.05015    0.67512    0.61227    1.000
    O21      O        0.00115    0.71385    0.79610    1.000
    O22      O        0.94371    0.66879    0.83456    1.000
    O23      O        0.90517    0.37095    0.67705    1.000
    O24      O        0.94601    0.40924    0.75032    1.000
    C49      C        0.92179    0.40183    0.70934    1.000
    C50      C        0.91087    0.43281    0.69300    1.000
    C51      C        0.88915    0.42983    0.64031    1.000
    H31      H        0.88113    0.40857    0.61417    1.000
    C52      C        0.88033    0.45938    0.62901    1.000
    H32      H        0.86623    0.45777    0.59447    1.000
    C53      C        0.89151    0.49095    0.66652    1.000
    C54      C        0.91260    0.49325    0.71604    1.000
    H33      H        0.92033    0.51457    0.74187    1.000
    C55      C        0.92317    0.46504    0.72986    1.000
    H34      H        0.93843    0.46797    0.76367    1.000
    C56      C        0.87993    0.52230    0.65316    1.000
    H35      H        0.89383    0.53647    0.61727    1.000
    H36      H        0.85183    0.50887    0.64437    1.000
    C57      C        0.85987    0.53935    0.74630    1.000
    H37      H        0.87393    0.55217    0.78277    1.000
    H38      H        0.84813    0.51107    0.75237    1.000
    C58      C        0.82723    0.54819    0.73858    1.000
    C59      C        0.79958    0.53981    0.78131    1.000
    H39      H        0.80143    0.52897    0.81747    1.000
    C60      C        0.76851    0.54708    0.77245    1.000
    H40      H        0.74963    0.54017    0.80247    1.000
    C61      C        0.76490    0.56342    0.72278    1.000
    C62      C        0.79215    0.57330    0.67717    1.000
    H41      H        0.79013    0.58487    0.64177    1.000
    C63      C        0.82271    0.56524    0.68634    1.000
    H42      H        0.84123    0.57157    0.65587    1.000
    C64      C        0.92408    0.58743    0.70104    1.000
    C65      C        0.93005    0.61576    0.74400    1.000
    H43      H        0.91003    0.61037    0.77157    1.000
    C66      C        0.96455    0.65140    0.74677    1.000
    C67      C        0.99426    0.65995    0.70403    1.000
    H44      H        0.01753    0.68437    0.70417    1.000
    C68      C        0.98844    0.63187    0.66222    1.000
    C69      C        0.95436    0.59600    0.66097    1.000
    H45      H        0.95153    0.57717    0.63287    1.000
    C70      C        0.73093    0.57204    0.71518    1.000
    C71      C        0.02002    0.64041    0.61588    1.000
    C72      C        0.97025    0.68048    0.79612    1.000
    N3       N        0.88794    0.55055    0.69966    1.000
    Mn7      Mn       0.26176    0.92568    0.09236    1.000
    Mn8      Mn       0.34437    0.92437    0.03378    1.000
    O25      O        0.08010    0.47471    0.99762    1.000
    O26      O        0.10243    0.47591    0.08970    1.000
    O27      O        0.05301    0.73643    0.91477    1.000
    O28      O        0.99155    0.70837    0.94560    1.000
    O29      O        0.95282    0.62064    0.12943    1.000
    O30      O        0.99788    0.60826    0.16789    1.000
    O31      O        0.29572    0.86756    0.01038    1.000
    O32      O        0.25743    0.87011    0.08365    1.000
    C73      C        0.26484    0.85330    0.04267    1.000
    C74      C        0.23386    0.81140    0.02633    1.000
    C75      C        0.23684    0.79266    0.97364    1.000
    H46      H        0.25810    0.80590    0.94750    1.000
    C76      C        0.20729    0.75429    0.96234    1.000
    H47      H        0.20890    0.74180    0.92780    1.000
    C77      C        0.17572    0.73390    0.99985    1.000
    C78      C        0.17342    0.75269    0.04937    1.000
    H48      H        0.15210    0.73910    0.07520    1.000
    C79      C        0.20163    0.79147    0.06319    1.000
    H49      H        0.19870    0.80380    0.09700    1.000
    C80      C        0.14437    0.69097    0.98649    1.000
    H50      H        0.13020    0.69070    0.95060    1.000
    H51      H        0.15780    0.67630    0.97770    1.000
    C81      C        0.12732    0.65386    0.07963    1.000
    H52      H        0.11450    0.65510    0.11610    1.000
    H53      H        0.15560    0.67040    0.08570    1.000
    C82      C        0.11848    0.61238    0.07191    1.000
    C83      C        0.12686    0.59311    0.11464    1.000
    H54      H        0.13770    0.60580    0.15080    1.000
    C84      C        0.11959    0.55477    0.10578    1.000
    H55      H        0.12650    0.54280    0.13580    1.000
    C85      C        0.10325    0.53482    0.05611    1.000
    C86      C        0.09337    0.55219    0.01050    1.000
    H56      H        0.08180    0.53860    0.97510    1.000
    C87      C        0.10143    0.59081    0.01967    1.000
    H57      H        0.09510    0.60300    0.98920    1.000
    C88      C        0.07924    0.66999    0.03437    1.000
    C89      C        0.05091    0.64763    0.07733    1.000
    H58      H        0.05630    0.63300    0.10490    1.000
    C90      C        0.01527    0.64649    0.08010    1.000
    C91      C        0.00672    0.66765    0.03736    1.000
    H59      H        0.98230    0.66650    0.03750    1.000
    C92      C        0.03480    0.68991    0.99555    1.000
    C93      C        0.07067    0.69170    0.99430    1.000
    H60      H        0.08950    0.70770    0.96620    1.000
    C94      C        0.09463    0.49223    0.04851    1.000
    C95      C        0.02626    0.71295    0.94921    1.000
    C96      C        0.98619    0.62311    0.12945    1.000
    N4       N        0.11612    0.67073    0.03299    1.000
    Mn9      Mn       0.92843    0.25901    0.42569    1.000
    Mn10     Mn       0.01103    0.25771    0.36712    1.000
    O33      O        0.74677    0.80804    0.33095    1.000
    O34      O        0.76910    0.80924    0.42303    1.000
    O35      O        0.71968    0.06976    0.24810    1.000
    O36      O        0.65822    0.04170    0.27893    1.000
    O37      O        0.61949    0.95397    0.46276    1.000
    O38      O        0.66455    0.94159    0.50122    1.000
    O39      O        0.96239    0.20089    0.34371    1.000
    O40      O        0.92410    0.20344    0.41698    1.000
    C97      C        0.93151    0.18663    0.37600    1.000
    C98      C        0.90053    0.14473    0.35966    1.000
    C99      C        0.90351    0.12599    0.30697    1.000
    H61      H        0.92477    0.13923    0.28083    1.000
    C100     C        0.87396    0.08762    0.29567    1.000
    H62      H        0.87557    0.07513    0.26113    1.000
    C101     C        0.84239    0.06723    0.33318    1.000
    C102     C        0.84009    0.08602    0.38270    1.000
    H63      H        0.81877    0.07243    0.40853    1.000
    C103     C        0.86830    0.12480    0.39652    1.000
    H64      H        0.86537    0.13713    0.43033    1.000
    C104     C        0.81104    0.02430    0.31982    1.000
    H65      H        0.79687    0.02403    0.28393    1.000
    H66      H        0.82447    0.00963    0.31103    1.000
    C105     C        0.79399    0.98719    0.41296    1.000
    H67      H        0.78117    0.98843    0.44943    1.000
    H68      H        0.82227    0.00373    0.41903    1.000
    C106     C        0.78515    0.94571    0.40524    1.000
    C107     C        0.79353    0.92644    0.44797    1.000
    H69      H        0.80437    0.93913    0.48413    1.000
    C108     C        0.78626    0.88810    0.43911    1.000
    H70      H        0.79317    0.87613    0.46913    1.000
    C109     C        0.76992    0.86815    0.38944    1.000
    C110     C        0.76004    0.88552    0.34383    1.000
    H71      H        0.74847    0.87193    0.30843    1.000
    C111     C        0.76810    0.92414    0.35300    1.000
    H72      H        0.76177    0.93633    0.32253    1.000
    C112     C        0.74591    0.00332    0.36770    1.000
    C113     C        0.71758    0.98096    0.41066    1.000
    H73      H        0.72297    0.96633    0.43823    1.000
    C114     C        0.68194    0.97982    0.41343    1.000
    C115     C        0.67339    0.00098    0.37069    1.000
    H74      H        0.64897    0.99983    0.37083    1.000
    C116     C        0.70147    0.02324    0.32888    1.000
    C117     C        0.73734    0.02503    0.32763    1.000
    H75      H        0.75617    0.04103    0.29953    1.000
    C118     C        0.76130    0.82556    0.38184    1.000
    C119     C        0.69293    0.04628    0.28254    1.000
    C120     C        0.65286    0.95644    0.46278    1.000
    N5       N        0.78279    0.00406    0.36632    1.000
    Mn11     Mn       0.59510    0.59235    0.75903    1.000
    Mn12     Mn       0.67770    0.59104    0.70045    1.000
    O41      O        0.41343    0.14138    0.66429    1.000
    O42      O        0.43576    0.14258    0.75637    1.000
    O43      O        0.38634    0.40310    0.58144    1.000
    O44      O        0.32488    0.37504    0.61227    1.000
    O45      O        0.28615    0.28731    0.79610    1.000
    O46      O        0.33121    0.27493    0.83456    1.000
    O47      O        0.62905    0.53423    0.67705    1.000
    O48      O        0.59076    0.53678    0.75032    1.000
    C121     C        0.59817    0.51997    0.70934    1.000
    C122     C        0.56719    0.47807    0.69300    1.000
    C123     C        0.57017    0.45933    0.64031    1.000
    H76      H        0.59143    0.47257    0.61417    1.000
    C124     C        0.54062    0.42096    0.62901    1.000
    H77      H        0.54223    0.40847    0.59447    1.000
    C125     C        0.50905    0.40057    0.66652    1.000
    C126     C        0.50675    0.41936    0.71604    1.000
    H78      H        0.48543    0.40577    0.74187    1.000
    C127     C        0.53496    0.45814    0.72986    1.000
    H79      H        0.53203    0.47047    0.76367    1.000
    C128     C        0.47770    0.35764    0.65316    1.000
    H80      H        0.46353    0.35737    0.61727    1.000
    H81      H        0.49113    0.34297    0.64437    1.000
    C129     C        0.46065    0.32053    0.74630    1.000
    H82      H        0.44783    0.32177    0.78277    1.000
    H83      H        0.48893    0.33707    0.75237    1.000
    C130     C        0.45181    0.27905    0.73858    1.000
    C131     C        0.46019    0.25978    0.78131    1.000
    H84      H        0.47103    0.27247    0.81747    1.000
    C132     C        0.45292    0.22144    0.77245    1.000
    H85      H        0.45983    0.20947    0.80247    1.000
    C133     C        0.43658    0.20149    0.72278    1.000
    C134     C        0.42670    0.21886    0.67717    1.000
    H86      H        0.41513    0.20527    0.64177    1.000
    C135     C        0.43476    0.25748    0.68634    1.000
    H87      H        0.42843    0.26967    0.65587    1.000
    C136     C        0.41257    0.33666    0.70104    1.000
    C137     C        0.38424    0.31430    0.74400    1.000
    H88      H        0.38963    0.29967    0.77157    1.000
    C138     C        0.34860    0.31316    0.74677    1.000
    C139     C        0.34005    0.33432    0.70403    1.000
    H89      H        0.31563    0.33317    0.70417    1.000
    C140     C        0.36813    0.35658    0.66222    1.000
    C141     C        0.40400    0.35837    0.66097    1.000
    H90      H        0.42283    0.37437    0.63287    1.000
    C142     C        0.42796    0.15890    0.71518    1.000
    C143     C        0.35959    0.37962    0.61588    1.000
    C144     C        0.31952    0.28978    0.79612    1.000
    N6       N        0.44945    0.33740    0.69966    1.000
    Mn13     Mn       0.07432    0.33608    0.09236    1.000
    Mn14     Mn       0.07563    0.41999    0.03378    1.000
    O49      O        0.52529    0.60539    0.99762    1.000
    O50      O        0.52409    0.62652    0.08970    1.000
    O51      O        0.26357    0.31658    0.91477    1.000
    O52      O        0.29163    0.28318    0.94560    1.000
    O53      O        0.37936    0.33218    0.12943    1.000
    O54      O        0.39174    0.38962    0.16789    1.000
    O55      O        0.13244    0.42816    0.01038    1.000
    O56      O        0.12989    0.38732    0.08365    1.000
    C145     C        0.14670    0.41154    0.04267    1.000
    C146     C        0.18860    0.42246    0.02633    1.000
    C147     C        0.20734    0.44418    0.97364    1.000
    H91      H        0.19410    0.45220    0.94750    1.000
    C148     C        0.24571    0.45300    0.96234    1.000
    H92      H        0.25820    0.46710    0.92780    1.000
    C149     C        0.26610    0.44182    0.99985    1.000
    C150     C        0.24731    0.42073    0.04937    1.000
    H93      H        0.26090    0.41300    0.07520    1.000
    C151     C        0.20853    0.41016    0.06319    1.000
    H94      H        0.19620    0.39490    0.09700    1.000
    C152     C        0.30903    0.45340    0.98649    1.000
    H95      H        0.30930    0.43950    0.95060    1.000
    H96      H        0.32370    0.48150    0.97770    1.000
    C153     C        0.34614    0.47346    0.07963    1.000
    H97      H        0.34490    0.45940    0.11610    1.000
    H98      H        0.32960    0.48520    0.08570    1.000
    C154     C        0.38762    0.50610    0.07191    1.000
    C155     C        0.40689    0.53375    0.11464    1.000
    H99      H        0.39420    0.53190    0.15080    1.000
    C156     C        0.44523    0.56482    0.10578    1.000
    H100     H        0.45720    0.58370    0.13580    1.000
    C157     C        0.46518    0.56843    0.05611    1.000
    C158     C        0.44781    0.54118    0.01050    1.000
    H101     H        0.46140    0.54320    0.97510    1.000
    C159     C        0.40919    0.51062    0.01967    1.000
    H102     H        0.39700    0.49210    0.98920    1.000
    C160     C        0.33001    0.40925    0.03437    1.000
    C161     C        0.35237    0.40328    0.07733    1.000
    H103     H        0.36700    0.42330    0.10490    1.000
    C162     C        0.35351    0.36878    0.08010    1.000
    C163     C        0.33235    0.33907    0.03736    1.000
    H104     H        0.33350    0.31580    0.03750    1.000
    C164     C        0.31009    0.34489    0.99555    1.000
    C165     C        0.30830    0.37897    0.99430    1.000
    H105     H        0.29230    0.38180    0.96620    1.000
    C166     C        0.50777    0.60240    0.04851    1.000
    C167     C        0.28705    0.31331    0.94921    1.000
    C168     C        0.37689    0.36308    0.12945    1.000
    N7       N        0.32927    0.44539    0.03299    1.000
    Mn15     Mn       0.74099    0.66941    0.42569    1.000
    Mn16     Mn       0.74229    0.75333    0.36712    1.000
    O57      O        0.19196    0.93872    0.33095    1.000
    O58      O        0.19076    0.95985    0.42303    1.000
    O59      O        0.93024    0.64991    0.24810    1.000
    O60      O        0.95830    0.61651    0.27893    1.000
    O61      O        0.04603    0.66551    0.46276    1.000
    O62      O        0.05841    0.72295    0.50122    1.000
    O63      O        0.79911    0.76149    0.34371    1.000
    O64      O        0.79656    0.72065    0.41698    1.000
    C169     C        0.81337    0.74487    0.37600    1.000
    C170     C        0.85527    0.75579    0.35966    1.000
    C171     C        0.87401    0.77751    0.30697    1.000
    H106     H        0.86077    0.78553    0.28083    1.000
    C172     C        0.91238    0.78633    0.29567    1.000
    H107     H        0.92487    0.80043    0.26113    1.000
    C173     C        0.93277    0.77515    0.33318    1.000
    C174     C        0.91398    0.75406    0.38270    1.000
    H108     H        0.92757    0.74633    0.40853    1.000
    C175     C        0.87520    0.74349    0.39652    1.000
    H109     H        0.86287    0.72823    0.43033    1.000
    C176     C        0.97570    0.78673    0.31982    1.000
    H110     H        0.97597    0.77283    0.28393    1.000
    H111     H        0.99037    0.81483    0.31103    1.000
    C177     C        0.01281    0.80679    0.41296    1.000
    H112     H        0.01157    0.79273    0.44943    1.000
    H113     H        0.99627    0.81853    0.41903    1.000
    C178     C        0.05429    0.83943    0.40524    1.000
    C179     C        0.07356    0.86708    0.44797    1.000
    H114     H        0.06087    0.86523    0.48413    1.000
    C180     C        0.11190    0.89815    0.43911    1.000
    H115     H        0.12387    0.91703    0.46913    1.000
    C181     C        0.13185    0.90176    0.38944    1.000
    C182     C        0.11448    0.87451    0.34383    1.000
    H116     H        0.12807    0.87653    0.30843    1.000
    C183     C        0.07586    0.84395    0.35300    1.000
    H117     H        0.06367    0.82543    0.32253    1.000
    C184     C        0.99668    0.74258    0.36770    1.000
    C185     C        0.01904    0.73661    0.41066    1.000
    H118     H        0.03367    0.75663    0.43823    1.000
    C186     C        0.02018    0.70211    0.41343    1.000
    C187     C        0.99902    0.67240    0.37069    1.000
    H119     H        0.00017    0.64913    0.37083    1.000
    C188     C        0.97676    0.67822    0.32888    1.000
    C189     C        0.97497    0.71230    0.32763    1.000
    H120     H        0.95897    0.71513    0.29953    1.000
    C190     C        0.17444    0.93573    0.38184    1.000
    C191     C        0.95372    0.64664    0.28254    1.000
    C192     C        0.04356    0.69641    0.46278    1.000
    N8       N        0.99594    0.77872    0.36632    1.000
    Mn17     Mn       0.40765    0.00275    0.75903    1.000
    Mn18     Mn       0.40896    0.08666    0.70045    1.000
    O65      O        0.85862    0.27206    0.66429    1.000
    O66      O        0.85742    0.29319    0.75637    1.000
    O67      O        0.59690    0.98325    0.58144    1.000
    O68      O        0.62496    0.94985    0.61227    1.000
    O69      O        0.71269    0.99885    0.79610    1.000
    O70      O        0.72507    0.05629    0.83456    1.000
    O71      O        0.46577    0.09483    0.67705    1.000
    O72      O        0.46322    0.05399    0.75032    1.000
    C193     C        0.48003    0.07821    0.70934    1.000
    C194     C        0.52193    0.08913    0.69300    1.000
    C195     C        0.54067    0.11085    0.64031    1.000
    H121     H        0.52743    0.11887    0.61417    1.000
    C196     C        0.57904    0.11967    0.62901    1.000
    H122     H        0.59153    0.13377    0.59447    1.000
    C197     C        0.59943    0.10849    0.66652    1.000
    C198     C        0.58064    0.08740    0.71604    1.000
    H123     H        0.59423    0.07967    0.74187    1.000
    C199     C        0.54186    0.07683    0.72986    1.000
    H124     H        0.52953    0.06157    0.76367    1.000
    C200     C        0.64236    0.12007    0.65316    1.000
    H125     H        0.64263    0.10617    0.61727    1.000
    H126     H        0.65703    0.14817    0.64437    1.000
    C201     C        0.67947    0.14013    0.74630    1.000
    H127     H        0.67823    0.12607    0.78277    1.000
    H128     H        0.66293    0.15187    0.75237    1.000
    C202     C        0.72095    0.17277    0.73858    1.000
    C203     C        0.74022    0.20042    0.78131    1.000
    H129     H        0.72753    0.19857    0.81747    1.000
    C204     C        0.77856    0.23149    0.77245    1.000
    H130     H        0.79053    0.25037    0.80247    1.000
    C205     C        0.79851    0.23510    0.72278    1.000
    C206     C        0.78114    0.20785    0.67717    1.000
    H131     H        0.79473    0.20987    0.64177    1.000
    C207     C        0.74252    0.17729    0.68634    1.000
    H132     H        0.73033    0.15877    0.65587    1.000
    C208     C        0.66334    0.07592    0.70104    1.000
    C209     C        0.68570    0.06995    0.74400    1.000
    H133     H        0.70033    0.08997    0.77157    1.000
    C210     C        0.68684    0.03545    0.74677    1.000
    C211     C        0.66568    0.00574    0.70403    1.000
    H134     H        0.66683    0.98247    0.70417    1.000
    C212     C        0.64342    0.01156    0.66222    1.000
    C213     C        0.64163    0.04564    0.66097    1.000
    H135     H        0.62563    0.04847    0.63287    1.000
    C214     C        0.84110    0.26907    0.71518    1.000
    C215     C        0.62038    0.97998    0.61588    1.000
    C216     C        0.71022    0.02975    0.79612    1.000
    N9       N        0.66260    0.11206    0.69966    1.000
    Mn19     Mn       0.26176    0.33608    0.59236    1.000
    Mn20     Mn       0.34437    0.41999    0.53378    1.000
    O73      O        0.08010    0.60539    0.49762    1.000
    O74      O        0.10243    0.62652    0.58970    1.000
    O75      O        0.05301    0.31658    0.41477    1.000
    O76      O        0.99155    0.28318    0.44560    1.000
    O77      O        0.95282    0.33218    0.62943    1.000
    O78      O        0.99788    0.38962    0.66789    1.000
    O79      O        0.29572    0.42816    0.51038    1.000
    O80      O        0.25743    0.38732    0.58365    1.000
    C217     C        0.26484    0.41154    0.54267    1.000
    C218     C        0.23386    0.42246    0.52633    1.000
    C219     C        0.23684    0.44418    0.47364    1.000
    H136     H        0.25810    0.45220    0.44750    1.000
    C220     C        0.20729    0.45300    0.46234    1.000
    H137     H        0.20890    0.46710    0.42780    1.000
    C221     C        0.17572    0.44182    0.49985    1.000
    C222     C        0.17342    0.42073    0.54937    1.000
    H138     H        0.15210    0.41300    0.57520    1.000
    C223     C        0.20163    0.41016    0.56319    1.000
    H139     H        0.19870    0.39490    0.59700    1.000
    C224     C        0.14437    0.45340    0.48649    1.000
    H140     H        0.13020    0.43950    0.45060    1.000
    H141     H        0.15780    0.48150    0.47770    1.000
    C225     C        0.12732    0.47346    0.57963    1.000
    H142     H        0.11450    0.45940    0.61610    1.000
    H143     H        0.15560    0.48520    0.58570    1.000
    C226     C        0.11848    0.50610    0.57191    1.000
    C227     C        0.12686    0.53375    0.61464    1.000
    H144     H        0.13770    0.53190    0.65080    1.000
    C228     C        0.11959    0.56482    0.60578    1.000
    H145     H        0.12650    0.58370    0.63580    1.000
    C229     C        0.10325    0.56843    0.55611    1.000
    C230     C        0.09337    0.54118    0.51050    1.000
    H146     H        0.08180    0.54320    0.47510    1.000
    C231     C        0.10143    0.51062    0.51967    1.000
    H147     H        0.09510    0.49210    0.48920    1.000
    C232     C        0.07924    0.40925    0.53437    1.000
    C233     C        0.05091    0.40328    0.57733    1.000
    H148     H        0.05630    0.42330    0.60490    1.000
    C234     C        0.01527    0.36878    0.58010    1.000
    C235     C        0.00672    0.33907    0.53736    1.000
    H149     H        0.98230    0.31580    0.53750    1.000
    C236     C        0.03480    0.34489    0.49555    1.000
    C237     C        0.07067    0.37897    0.49430    1.000
    H150     H        0.08950    0.38180    0.46620    1.000
    C238     C        0.09463    0.60240    0.54851    1.000
    C239     C        0.02626    0.31331    0.44921    1.000
    C240     C        0.98619    0.36308    0.62945    1.000
    N10      N        0.11612    0.44539    0.53299    1.000
    Mn21     Mn       0.92843    0.66941    0.92569    1.000
    Mn22     Mn       0.01103    0.75333    0.86712    1.000
    O81      O        0.74677    0.93872    0.83095    1.000
    O82      O        0.76910    0.95985    0.92303    1.000
    O83      O        0.71968    0.64991    0.74810    1.000
    O84      O        0.65822    0.61651    0.77893    1.000
    O85      O        0.61949    0.66551    0.96276    1.000
    O86      O        0.66455    0.72295    0.00122    1.000
    O87      O        0.96239    0.76149    0.84371    1.000
    O88      O        0.92410    0.72065    0.91698    1.000
    C241     C        0.93151    0.74487    0.87600    1.000
    C242     C        0.90053    0.75579    0.85966    1.000
    C243     C        0.90351    0.77751    0.80697    1.000
    H151     H        0.92477    0.78553    0.78083    1.000
    C244     C        0.87396    0.78633    0.79567    1.000
    H152     H        0.87557    0.80043    0.76113    1.000
    C245     C        0.84239    0.77515    0.83318    1.000
    C246     C        0.84009    0.75406    0.88270    1.000
    H153     H        0.81877    0.74633    0.90853    1.000
    C247     C        0.86830    0.74349    0.89652    1.000
    H154     H        0.86537    0.72823    0.93033    1.000
    C248     C        0.81104    0.78673    0.81982    1.000
    H155     H        0.79687    0.77283    0.78393    1.000
    H156     H        0.82447    0.81483    0.81103    1.000
    C249     C        0.79399    0.80679    0.91296    1.000
    H157     H        0.78117    0.79273    0.94943    1.000
    H158     H        0.82227    0.81853    0.91903    1.000
    C250     C        0.78515    0.83943    0.90524    1.000
    C251     C        0.79353    0.86708    0.94797    1.000
    H159     H        0.80437    0.86523    0.98413    1.000
    C252     C        0.78626    0.89815    0.93911    1.000
    H160     H        0.79317    0.91703    0.96913    1.000
    C253     C        0.76992    0.90176    0.88944    1.000
    C254     C        0.76004    0.87451    0.84383    1.000
    H161     H        0.74847    0.87653    0.80843    1.000
    C255     C        0.76810    0.84395    0.85300    1.000
    H162     H        0.76177    0.82543    0.82253    1.000
    C256     C        0.74591    0.74258    0.86770    1.000
    C257     C        0.71758    0.73661    0.91066    1.000
    H163     H        0.72297    0.75663    0.93823    1.000
    C258     C        0.68194    0.70211    0.91343    1.000
    C259     C        0.67339    0.67240    0.87069    1.000
    H164     H        0.64897    0.64913    0.87083    1.000
    C260     C        0.70147    0.67822    0.82888    1.000
    C261     C        0.73734    0.71230    0.82763    1.000
    H165     H        0.75617    0.71513    0.79953    1.000
    C262     C        0.76130    0.93573    0.88184    1.000
    C263     C        0.69293    0.64664    0.78254    1.000
    C264     C        0.65286    0.69641    0.96278    1.000
    N11      N        0.78279    0.77872    0.86632    1.000
    Mn23     Mn       0.59510    0.00275    0.25903    1.000
    Mn24     Mn       0.67770    0.08666    0.20045    1.000
    O89      O        0.41343    0.27206    0.16429    1.000
    O90      O        0.43576    0.29319    0.25637    1.000
    O91      O        0.38634    0.98325    0.08144    1.000
    O92      O        0.32488    0.94985    0.11227    1.000
    O93      O        0.28615    0.99885    0.29610    1.000
    O94      O        0.33121    0.05629    0.33456    1.000
    O95      O        0.62905    0.09483    0.17705    1.000
    O96      O        0.59076    0.05399    0.25032    1.000
    C265     C        0.59817    0.07821    0.20934    1.000
    C266     C        0.56719    0.08913    0.19300    1.000
    C267     C        0.57017    0.11085    0.14031    1.000
    H166     H        0.59143    0.11887    0.11417    1.000
    C268     C        0.54062    0.11967    0.12901    1.000
    H167     H        0.54223    0.13377    0.09447    1.000
    C269     C        0.50905    0.10849    0.16652    1.000
    C270     C        0.50675    0.08740    0.21604    1.000
    H168     H        0.48543    0.07967    0.24187    1.000
    C271     C        0.53496    0.07683    0.22986    1.000
    H169     H        0.53203    0.06157    0.26367    1.000
    C272     C        0.47770    0.12007    0.15316    1.000
    H170     H        0.46353    0.10617    0.11727    1.000
    H171     H        0.49113    0.14817    0.14437    1.000
    C273     C        0.46065    0.14013    0.24630    1.000
    H172     H        0.44783    0.12607    0.28277    1.000
    H173     H        0.48893    0.15187    0.25237    1.000
    C274     C        0.45181    0.17277    0.23858    1.000
    C275     C        0.46019    0.20042    0.28131    1.000
    H174     H        0.47103    0.19857    0.31747    1.000
    C276     C        0.45292    0.23149    0.27245    1.000
    H175     H        0.45983    0.25037    0.30247    1.000
    C277     C        0.43658    0.23510    0.22278    1.000
    C278     C        0.42670    0.20785    0.17717    1.000
    H176     H        0.41513    0.20987    0.14177    1.000
    C279     C        0.43476    0.17729    0.18634    1.000
    H177     H        0.42843    0.15877    0.15587    1.000
    C280     C        0.41257    0.07592    0.20104    1.000
    C281     C        0.38424    0.06995    0.24400    1.000
    H178     H        0.38963    0.08997    0.27157    1.000
    C282     C        0.34860    0.03545    0.24677    1.000
    C283     C        0.34005    0.00574    0.20403    1.000
    H179     H        0.31563    0.98247    0.20417    1.000
    C284     C        0.36813    0.01156    0.16222    1.000
    C285     C        0.40400    0.04564    0.16097    1.000
    H180     H        0.42283    0.04847    0.13287    1.000
    C286     C        0.42796    0.26907    0.21518    1.000
    C287     C        0.35959    0.97998    0.11588    1.000
    C288     C        0.31952    0.02975    0.29612    1.000
    N12      N        0.44945    0.11206    0.19966    1.000
    Mn25     Mn       0.07432    0.73824    0.59236    1.000
    Mn26     Mn       0.07563    0.65563    0.53378    1.000
    O97      O        0.52529    0.91990    0.49762    1.000
    O98      O        0.52409    0.89757    0.58970    1.000
    O99      O        0.26357    0.94699    0.41477    1.000
    O100     O        0.29163    0.00845    0.44560    1.000
    O101     O        0.37936    0.04718    0.62943    1.000
    O102     O        0.39174    0.00212    0.66789    1.000
    O103     O        0.13244    0.70428    0.51038    1.000
    O104     O        0.12989    0.74257    0.58365    1.000
    C289     C        0.14670    0.73516    0.54267    1.000
    C290     C        0.18860    0.76614    0.52633    1.000
    C291     C        0.20734    0.76316    0.47364    1.000
    H181     H        0.19410    0.74190    0.44750    1.000
    C292     C        0.24571    0.79271    0.46234    1.000
    H182     H        0.25820    0.79110    0.42780    1.000
    C293     C        0.26610    0.82428    0.49985    1.000
    C294     C        0.24731    0.82658    0.54937    1.000
    H183     H        0.26090    0.84790    0.57520    1.000
    C295     C        0.20853    0.79837    0.56319    1.000
    H184     H        0.19620    0.80130    0.59700    1.000
    C296     C        0.30903    0.85563    0.48649    1.000
    H185     H        0.30930    0.86980    0.45060    1.000
    H186     H        0.32370    0.84220    0.47770    1.000
    C297     C        0.34614    0.87268    0.57963    1.000
    H187     H        0.34490    0.88550    0.61610    1.000
    H188     H        0.32960    0.84440    0.58570    1.000
    C298     C        0.38762    0.88152    0.57191    1.000
    C299     C        0.40689    0.87314    0.61464    1.000
    H189     H        0.39420    0.86230    0.65080    1.000
    C300     C        0.44523    0.88041    0.60578    1.000
    H190     H        0.45720    0.87350    0.63580    1.000
    C301     C        0.46518    0.89675    0.55611    1.000
    C302     C        0.44781    0.90663    0.51050    1.000
    H191     H        0.46140    0.91820    0.47510    1.000
    C303     C        0.40919    0.89857    0.51967    1.000
    H192     H        0.39700    0.90490    0.48920    1.000
    C304     C        0.33001    0.92076    0.53437    1.000
    C305     C        0.35237    0.94909    0.57733    1.000
    H193     H        0.36700    0.94370    0.60490    1.000
    C306     C        0.35351    0.98473    0.58010    1.000
    C307     C        0.33235    0.99328    0.53736    1.000
    H194     H        0.33350    0.01770    0.53750    1.000
    C308     C        0.31009    0.96520    0.49555    1.000
    C309     C        0.30830    0.92933    0.49430    1.000
    H195     H        0.29230    0.91050    0.46620    1.000
    C310     C        0.50777    0.90537    0.54851    1.000
    C311     C        0.28705    0.97374    0.44921    1.000
    C312     C        0.37689    0.01381    0.62945    1.000
    N13      N        0.32927    0.88388    0.53299    1.000
    Mn27     Mn       0.74099    0.07157    0.92569    1.000
    Mn28     Mn       0.74229    0.98897    0.86712    1.000
    O105     O        0.19196    0.25323    0.83095    1.000
    O106     O        0.19076    0.23090    0.92303    1.000
    O107     O        0.93024    0.28032    0.74810    1.000
    O108     O        0.95830    0.34178    0.77893    1.000
    O109     O        0.04603    0.38051    0.96276    1.000
    O110     O        0.05841    0.33545    0.00122    1.000
    O111     O        0.79911    0.03761    0.84371    1.000
    O112     O        0.79656    0.07590    0.91698    1.000
    C313     C        0.81337    0.06849    0.87600    1.000
    C314     C        0.85527    0.09947    0.85966    1.000
    C315     C        0.87401    0.09649    0.80697    1.000
    H196     H        0.86077    0.07523    0.78083    1.000
    C316     C        0.91238    0.12604    0.79567    1.000
    H197     H        0.92487    0.12443    0.76113    1.000
    C317     C        0.93277    0.15761    0.83318    1.000
    C318     C        0.91398    0.15991    0.88270    1.000
    H198     H        0.92757    0.18123    0.90853    1.000
    C319     C        0.87520    0.13170    0.89652    1.000
    H199     H        0.86287    0.13463    0.93033    1.000
    C320     C        0.97570    0.18896    0.81982    1.000
    H200     H        0.97597    0.20313    0.78393    1.000
    H201     H        0.99037    0.17553    0.81103    1.000
    C321     C        0.01281    0.20601    0.91296    1.000
    H202     H        0.01157    0.21883    0.94943    1.000
    H203     H        0.99627    0.17773    0.91903    1.000
    C322     C        0.05429    0.21485    0.90524    1.000
    C323     C        0.07356    0.20647    0.94797    1.000
    H204     H        0.06087    0.19563    0.98413    1.000
    C324     C        0.11190    0.21374    0.93911    1.000
    H205     H        0.12387    0.20683    0.96913    1.000
    C325     C        0.13185    0.23008    0.88944    1.000
    C326     C        0.11448    0.23996    0.84383    1.000
    H206     H        0.12807    0.25153    0.80843    1.000
    C327     C        0.07586    0.23190    0.85300    1.000
    H207     H        0.06367    0.23823    0.82253    1.000
    C328     C        0.99668    0.25409    0.86770    1.000
    C329     C        0.01904    0.28242    0.91066    1.000
    H208     H        0.03367    0.27703    0.93823    1.000
    C330     C        0.02018    0.31806    0.91343    1.000
    C331     C        0.99902    0.32661    0.87069    1.000
    H209     H        0.00017    0.35103    0.87083    1.000
    C332     C        0.97676    0.29853    0.82888    1.000
    C333     C        0.97497    0.26266    0.82763    1.000
    H210     H        0.95897    0.24383    0.79953    1.000
    C334     C        0.17444    0.23870    0.88184    1.000
    C335     C        0.95372    0.30707    0.78254    1.000
    C336     C        0.04356    0.34714    0.96278    1.000
    N14      N        0.99594    0.21721    0.86632    1.000
    Mn29     Mn       0.40765    0.40490    0.25903    1.000
    Mn30     Mn       0.40896    0.32230    0.20045    1.000
    O113     O        0.85862    0.58657    0.16429    1.000
    O114     O        0.85742    0.56424    0.25637    1.000
    O115     O        0.59690    0.61366    0.08144    1.000
    O116     O        0.62496    0.67512    0.11227    1.000
    O117     O        0.71269    0.71385    0.29610    1.000
    O118     O        0.72507    0.66879    0.33456    1.000
    O119     O        0.46577    0.37095    0.17705    1.000
    O120     O        0.46322    0.40924    0.25032    1.000
    C337     C        0.48003    0.40183    0.20934    1.000
    C338     C        0.52193    0.43281    0.19300    1.000
    C339     C        0.54067    0.42983    0.14031    1.000
    H211     H        0.52743    0.40857    0.11417    1.000
    C340     C        0.57904    0.45938    0.12901    1.000
    H212     H        0.59153    0.45777    0.09447    1.000
    C341     C        0.59943    0.49095    0.16652    1.000
    C342     C        0.58064    0.49325    0.21604    1.000
    H213     H        0.59423    0.51457    0.24187    1.000
    C343     C        0.54186    0.46504    0.22986    1.000
    H214     H        0.52953    0.46797    0.26367    1.000
    C344     C        0.64236    0.52230    0.15316    1.000
    H215     H        0.64263    0.53647    0.11727    1.000
    H216     H        0.65703    0.50887    0.14437    1.000
    C345     C        0.67947    0.53935    0.24630    1.000
    H217     H        0.67823    0.55217    0.28277    1.000
    H218     H        0.66293    0.51107    0.25237    1.000
    C346     C        0.72095    0.54819    0.23858    1.000
    C347     C        0.74022    0.53981    0.28131    1.000
    H219     H        0.72753    0.52897    0.31747    1.000
    C348     C        0.77856    0.54708    0.27245    1.000
    H220     H        0.79053    0.54017    0.30247    1.000
    C349     C        0.79851    0.56342    0.22278    1.000
    C350     C        0.78114    0.57330    0.17717    1.000
    H221     H        0.79473    0.58487    0.14177    1.000
    C351     C        0.74252    0.56524    0.18634    1.000
    H222     H        0.73033    0.57157    0.15587    1.000
    C352     C        0.66334    0.58743    0.20104    1.000
    C353     C        0.68570    0.61576    0.24400    1.000
    H223     H        0.70033    0.61037    0.27157    1.000
    C354     C        0.68684    0.65140    0.24677    1.000
    C355     C        0.66568    0.65995    0.20403    1.000
    H224     H        0.66683    0.68437    0.20417    1.000
    C356     C        0.64342    0.63187    0.16222    1.000
    C357     C        0.64163    0.59600    0.16097    1.000
    H225     H        0.62563    0.57717    0.13287    1.000
    C358     C        0.84110    0.57204    0.21518    1.000
    C359     C        0.62038    0.64041    0.11588    1.000
    C360     C        0.71022    0.68048    0.29612    1.000
    N15      N        0.66260    0.55055    0.19966    1.000
    Mn31     Mn       0.66392    0.92568    0.59236    1.000
    Mn32     Mn       0.58001    0.92437    0.53378    1.000
    O121     O        0.39461    0.47471    0.49762    1.000
    O122     O        0.37348    0.47591    0.58970    1.000
    O123     O        0.68342    0.73643    0.41477    1.000
    O124     O        0.71682    0.70837    0.44560    1.000
    O125     O        0.66782    0.62064    0.62943    1.000
    O126     O        0.61038    0.60826    0.66789    1.000
    O127     O        0.57184    0.86756    0.51038    1.000
    O128     O        0.61268    0.87011    0.58365    1.000
    C361     C        0.58846    0.85330    0.54267    1.000
    C362     C        0.57754    0.81140    0.52633    1.000
    C363     C        0.55582    0.79266    0.47364    1.000
    H226     H        0.54780    0.80590    0.44750    1.000
    C364     C        0.54700    0.75429    0.46234    1.000
    H227     H        0.53290    0.74180    0.42780    1.000
    C365     C        0.55818    0.73390    0.49985    1.000
    C366     C        0.57927    0.75269    0.54937    1.000
    H228     H        0.58700    0.73910    0.57520    1.000
    C367     C        0.58984    0.79147    0.56319    1.000
    H229     H        0.60510    0.80380    0.59700    1.000
    C368     C        0.54660    0.69097    0.48649    1.000
    H230     H        0.56050    0.69070    0.45060    1.000
    H231     H        0.51850    0.67630    0.47770    1.000
    C369     C        0.52654    0.65386    0.57963    1.000
    H232     H        0.54060    0.65510    0.61610    1.000
    H233     H        0.51480    0.67040    0.58570    1.000
    C370     C        0.49390    0.61238    0.57191    1.000
    C371     C        0.46625    0.59311    0.61464    1.000
    H234     H        0.46810    0.60580    0.65080    1.000
    C372     C        0.43518    0.55477    0.60578    1.000
    H235     H        0.41630    0.54280    0.63580    1.000
    C373     C        0.43157    0.53482    0.55611    1.000
    C374     C        0.45882    0.55219    0.51050    1.000
    H236     H        0.45680    0.53860    0.47510    1.000
    C375     C        0.48938    0.59081    0.51967    1.000
    H237     H        0.50790    0.60300    0.48920    1.000
    C376     C        0.59075    0.66999    0.53437    1.000
    C377     C        0.59672    0.64763    0.57733    1.000
    H238     H        0.57670    0.63300    0.60490    1.000
    C378     C        0.63122    0.64649    0.58010    1.000
    C379     C        0.66093    0.66765    0.53736    1.000
    H239     H        0.68420    0.66650    0.53750    1.000
    C380     C        0.65511    0.68991    0.49555    1.000
    C381     C        0.62103    0.69170    0.49430    1.000
    H240     H        0.61820    0.70770    0.46620    1.000
    C382     C        0.39760    0.49223    0.54851    1.000
    C383     C        0.68669    0.71295    0.44921    1.000
    C384     C        0.63692    0.62311    0.62945    1.000
    N16      N        0.55461    0.67073    0.53299    1.000
    Mn33     Mn       0.33059    0.25901    0.92569    1.000
    Mn34     Mn       0.24667    0.25771    0.86712    1.000
    O129     O        0.06128    0.80804    0.83095    1.000
    O130     O        0.04015    0.80924    0.92303    1.000
    O131     O        0.35009    0.06976    0.74810    1.000
    O132     O        0.38349    0.04170    0.77893    1.000
    O133     O        0.33449    0.95397    0.96276    1.000
    O134     O        0.27705    0.94159    0.00122    1.000
    O135     O        0.23851    0.20089    0.84371    1.000
    O136     O        0.27935    0.20344    0.91698    1.000
    C385     C        0.25513    0.18663    0.87600    1.000
    C386     C        0.24421    0.14473    0.85966    1.000
    C387     C        0.22249    0.12599    0.80697    1.000
    H241     H        0.21447    0.13923    0.78083    1.000
    C388     C        0.21367    0.08762    0.79567    1.000
    H242     H        0.19957    0.07513    0.76113    1.000
    C389     C        0.22485    0.06723    0.83318    1.000
    C390     C        0.24594    0.08602    0.88270    1.000
    H243     H        0.25367    0.07243    0.90853    1.000
    C391     C        0.25651    0.12480    0.89652    1.000
    H244     H        0.27177    0.13713    0.93033    1.000
    C392     C        0.21327    0.02430    0.81982    1.000
    H245     H        0.22717    0.02403    0.78393    1.000
    H246     H        0.18517    0.00963    0.81103    1.000
    C393     C        0.19321    0.98719    0.91296    1.000
    H247     H        0.20727    0.98843    0.94943    1.000
    H248     H        0.18147    0.00373    0.91903    1.000
    C394     C        0.16057    0.94571    0.90524    1.000
    C395     C        0.13292    0.92644    0.94797    1.000
    H249     H        0.13477    0.93913    0.98413    1.000
    C396     C        0.10185    0.88810    0.93911    1.000
    H250     H        0.08297    0.87613    0.96913    1.000
    C397     C        0.09824    0.86815    0.88944    1.000
    C398     C        0.12549    0.88552    0.84383    1.000
    H251     H        0.12347    0.87193    0.80843    1.000
    C399     C        0.15605    0.92414    0.85300    1.000
    H252     H        0.17457    0.93633    0.82253    1.000
    C400     C        0.25742    0.00332    0.86770    1.000
    C401     C        0.26339    0.98096    0.91066    1.000
    H253     H        0.24337    0.96633    0.93823    1.000
    C402     C        0.29789    0.97982    0.91343    1.000
    C403     C        0.32760    0.00098    0.87069    1.000
    H254     H        0.35087    0.99983    0.87083    1.000
    C404     C        0.32178    0.02324    0.82888    1.000
    C405     C        0.28770    0.02503    0.82763    1.000
    H255     H        0.28487    0.04103    0.79953    1.000
    C406     C        0.06427    0.82556    0.88184    1.000
    C407     C        0.35336    0.04628    0.78254    1.000
    C408     C        0.30359    0.95644    0.96278    1.000
    N17      N        0.22128    0.00406    0.86632    1.000
    Mn35     Mn       0.99725    0.59235    0.25903    1.000
    Mn36     Mn       0.91334    0.59104    0.20045    1.000
    O137     O        0.72794    0.14138    0.16429    1.000
    O138     O        0.70681    0.14258    0.25637    1.000
    O139     O        0.01675    0.40310    0.08144    1.000
    O140     O        0.05015    0.37504    0.11227    1.000
    O141     O        0.00115    0.28731    0.29610    1.000
    O142     O        0.94371    0.27493    0.33456    1.000
    O143     O        0.90517    0.53423    0.17705    1.000
    O144     O        0.94601    0.53678    0.25032    1.000
    C409     C        0.92179    0.51997    0.20934    1.000
    C410     C        0.91087    0.47807    0.19300    1.000
    C411     C        0.88915    0.45933    0.14031    1.000
    H256     H        0.88113    0.47257    0.11417    1.000
    C412     C        0.88033    0.42096    0.12901    1.000
    H257     H        0.86623    0.40847    0.09447    1.000
    C413     C        0.89151    0.40057    0.16652    1.000
    C414     C        0.91260    0.41936    0.21604    1.000
    H258     H        0.92033    0.40577    0.24187    1.000
    C415     C        0.92317    0.45814    0.22986    1.000
    H259     H        0.93843    0.47047    0.26367    1.000
    C416     C        0.87993    0.35764    0.15316    1.000
    H260     H        0.89383    0.35737    0.11727    1.000
    H261     H        0.85183    0.34297    0.14437    1.000
    C417     C        0.85987    0.32053    0.24630    1.000
    H262     H        0.87393    0.32177    0.28277    1.000
    H263     H        0.84813    0.33707    0.25237    1.000
    C418     C        0.82723    0.27905    0.23858    1.000
    C419     C        0.79958    0.25978    0.28131    1.000
    H264     H        0.80143    0.27247    0.31747    1.000
    C420     C        0.76851    0.22144    0.27245    1.000
    H265     H        0.74963    0.20947    0.30247    1.000
    C421     C        0.76490    0.20149    0.22278    1.000
    C422     C        0.79215    0.21886    0.17717    1.000
    H266     H        0.79013    0.20527    0.14177    1.000
    C423     C        0.82271    0.25748    0.18634    1.000
    H267     H        0.84123    0.26967    0.15587    1.000
    C424     C        0.92408    0.33666    0.20104    1.000
    C425     C        0.93005    0.31430    0.24400    1.000
    H268     H        0.91003    0.29967    0.27157    1.000
    C426     C        0.96455    0.31316    0.24677    1.000
    C427     C        0.99426    0.33432    0.20403    1.000
    H269     H        0.01753    0.33317    0.20417    1.000
    C428     C        0.98844    0.35658    0.16222    1.000
    C429     C        0.95436    0.35837    0.16097    1.000
    H270     H        0.95153    0.37437    0.13287    1.000
    C430     C        0.73093    0.15890    0.21518    1.000
    C431     C        0.02002    0.37962    0.11588    1.000
    C432     C        0.97025    0.28978    0.29612    1.000
    N18      N        0.88794    0.33740    0.19966    1.000
