# CIF file generated by openbabel 3.1.0, see https://openbabel.org
data_I
_chemical_name_common 'image0'
_cell_length_a 10.2909
_cell_length_b 10.655
_cell_length_c 11.4221
_cell_angle_alpha 79.594
_cell_angle_beta 75.334
_cell_angle_gamma 61.906
_space_group_name_H-M_alt 'P 1'
_space_group_name_Hall 'P 1'
loop_
    _symmetry_equiv_pos_as_xyz
    x,y,z
loop_
    _atom_site_label
    _atom_site_type_symbol
    _atom_site_fract_x
    _atom_site_fract_y
    _atom_site_fract_z
    _atom_site_occupancy
    Mn1      Mn       0.55889    0.35795    0.19134    1.000
    N1       N        0.35330    0.33290    0.27490    1.000
    N2       N        0.98950    0.13590    0.49870    1.000
    O1       O        0.51740    0.34890    0.01690    1.000
    O2       O        0.54690    0.41880    0.82150    1.000
    O3       O        0.19260    0.73030    0.86520    1.000
    O4       O        0.28870    0.87870    0.78640    1.000
    O5       O        0.84600    0.36240    0.43280    1.000
    C1       C        0.49710    0.10080    0.90570    1.000
    H1       H        0.49450    0.16870    0.84130    1.000
    C2       C        0.62230    0.03260    0.96090    1.000
    C3       C        0.62180    0.93100    0.05500    1.000
    H2       H        0.70450    0.88300    0.09260    1.000
    C4       C        0.58810    0.33310    0.91030    1.000
    C5       C        0.17690    0.85480    0.83260    1.000
    C6       C        0.73730    0.20360    0.88570    1.000
    C7       C        0.75370    0.06510    0.91590    1.000
    C8       C        0.89870    0.95330    0.89840    1.000
    H3       H        0.91170    0.86030    0.91960    1.000
    C9       C        0.02340    0.97680    0.85030    1.000
    C10      C        0.00530    0.11520    0.81740    1.000
    H4       H        0.08820    0.13250    0.78430    1.000
    C11      C        0.86210    0.22680    0.83450    1.000
    H5       H        0.84920    0.31960    0.81110    1.000
    C12      C        0.26400    0.39300    0.38000    1.000
    H6       H        0.28460    0.45410    0.41270    1.000
    C13      C        0.14600    0.36700    0.43910    1.000
    H7       H        0.09090    0.40420    0.51360    1.000
    C14      C        0.10660    0.28100    0.38290    1.000
    C15      C        0.20290    0.21800    0.28390    1.000
    H8       H        0.18790    0.15410    0.24960    1.000
    C16      C        0.32290    0.24600    0.23200    1.000
    H9       H        0.38630    0.20000    0.16280    1.000
    C17      C        0.97120    0.26070    0.44060    1.000
    C18      C        0.86170    0.10700    0.55810    1.000
    H10      H        0.76860    0.19290    0.55310    1.000
    H11      H        0.86570    0.07740    0.64300    1.000
    C19      C        0.13330    0.00710    0.50260    1.000
    H12      H        0.14370    0.97500    0.58620    1.000
    H13      H        0.21590    0.02900    0.46210    1.000
    C20      C        0.30100    0.33200    0.39000    1.000
    H14      H        0.34270    0.35620    0.44000    1.000
    C21      C        0.18200    0.29700    0.44200    1.000
    H15      H        0.15870    0.28430    0.52650    1.000
    C22      C        0.13900    0.30800    0.25050    1.000
    H16      H        0.07760    0.31170    0.20170    1.000
    C23      C        0.26400    0.32800    0.20250    1.000
    H17      H        0.29160    0.33970    0.11860    1.000
    Mn2      Mn       0.44111    0.64205    0.80866    1.000
    N3       N        0.64670    0.66710    0.72510    1.000
    N4       N        0.01050    0.86410    0.50130    1.000
    O6       O        0.48260    0.65110    0.98310    1.000
    O7       O        0.45310    0.58120    0.17850    1.000
    O8       O        0.80740    0.26970    0.13480    1.000
    O9       O        0.71130    0.12130    0.21360    1.000
    O10      O        0.15400    0.63760    0.56720    1.000
    C24      C        0.50290    0.89920    0.09430    1.000
    H18      H        0.50550    0.83130    0.15870    1.000
    C25      C        0.37770    0.96740    0.03910    1.000
    C26      C        0.37820    0.06900    0.94500    1.000
    H19      H        0.29550    0.11700    0.90740    1.000
    C27      C        0.41190    0.66690    0.08970    1.000
    C28      C        0.82310    0.14520    0.16740    1.000
    C29      C        0.26270    0.79640    0.11430    1.000
    C30      C        0.24630    0.93490    0.08410    1.000
    C31      C        0.10130    0.04670    0.10160    1.000
    H20      H        0.08830    0.13970    0.08040    1.000
    C32      C        0.97660    0.02320    0.14970    1.000
    C33      C        0.99470    0.88480    0.18260    1.000
    H21      H        0.91180    0.86750    0.21570    1.000
    C34      C        0.13790    0.77320    0.16550    1.000
    H22      H        0.15080    0.68040    0.18890    1.000
    C35      C        0.73600    0.60700    0.62000    1.000
    H23      H        0.71540    0.54590    0.58730    1.000
    C36      C        0.85400    0.63300    0.56090    1.000
    H24      H        0.90910    0.59580    0.48640    1.000
    C37      C        0.89340    0.71900    0.61710    1.000
    C38      C        0.79710    0.78200    0.71610    1.000
    H25      H        0.81210    0.84590    0.75040    1.000
    C39      C        0.67710    0.75400    0.76800    1.000
    H26      H        0.61370    0.80000    0.83720    1.000
    C40      C        0.02880    0.73930    0.55940    1.000
    C41      C        0.13830    0.89300    0.44190    1.000
    H27      H        0.23140    0.80710    0.44690    1.000
    H28      H        0.13430    0.92260    0.35700    1.000
    C42      C        0.86670    0.99290    0.49740    1.000
    H29      H        0.85630    0.02500    0.41380    1.000
    H30      H        0.78410    0.97100    0.53790    1.000
    C43      C        0.69900    0.66800    0.61000    1.000
    H31      H        0.65730    0.64380    0.56000    1.000
    C44      C        0.81800    0.70300    0.55800    1.000
    H32      H        0.84130    0.71570    0.47350    1.000
    C45      C        0.86100    0.69200    0.74950    1.000
    H33      H        0.92240    0.68830    0.79830    1.000
    C46      C        0.73600    0.67200    0.79750    1.000
    H34      H        0.70840    0.66030    0.88140    1.000
