# CIF file generated by openbabel 3.1.0, see https://openbabel.org
data_I
_chemical_name_common 'QATRAG_clean'
_cell_length_a 6.0997
_cell_length_b 7.6528
_cell_length_c 22.533
_cell_angle_alpha 90
_cell_angle_beta 91.606
_cell_angle_gamma 90
_space_group_name_H-M_alt 'P 1'
_space_group_name_Hall 'P 1'
loop_
    _symmetry_equiv_pos_as_xyz
    x,y,z
loop_
    _atom_site_label
    _atom_site_type_symbol
    _atom_site_fract_x
    _atom_site_fract_y
    _atom_site_fract_z
    _atom_site_occupancy
    Ce1      Ce       0.54512    0.50171    0.85391    1.000
    Ce2      Ce       0.45488    0.00171    0.64609    1.000
    Ce3      Ce       0.45488    0.49829    0.14609    1.000
    Ce4      Ce       0.54512    0.99829    0.35391    1.000
    H1       H        0.44000    0.12500    0.88370    1.000
    H2       H        0.30200    0.22800    0.74190    1.000
    H3       H        0.12590    0.06440    0.87470    1.000
    H4       H        0.04100    0.97800    0.78010    1.000
    H5       H        0.56000    0.62500    0.61630    1.000
    H6       H        0.69800    0.72800    0.75810    1.000
    H7       H        0.87410    0.56440    0.62530    1.000
    H8       H        0.95900    0.47800    0.71990    1.000
    H9       H        0.56000    0.87500    0.11630    1.000
    H10      H        0.69800    0.77200    0.25810    1.000
    H11      H        0.87410    0.93560    0.12530    1.000
    H12      H        0.95900    0.02200    0.21990    1.000
    H13      H        0.44000    0.37500    0.38370    1.000
    H14      H        0.30200    0.27200    0.24190    1.000
    H15      H        0.12590    0.43560    0.37470    1.000
    H16      H        0.04100    0.52200    0.28010    1.000
    C1       C        0.04680    0.30570    0.84011    1.000
    C2       C        0.18230    0.13930    0.84330    1.000
    C3       C        0.18370    0.03550    0.78552    1.000
    C4       C        0.36110    0.89410    0.78871    1.000
    C5       C        0.58210    0.42420    0.00133    1.000
    C6       C        0.95320    0.80570    0.65989    1.000
    C7       C        0.81770    0.63930    0.65670    1.000
    C8       C        0.81630    0.53550    0.71448    1.000
    C9       C        0.63890    0.39410    0.71129    1.000
    C10      C        0.41790    0.92420    0.49867    1.000
    C11      C        0.95320    0.69430    0.15989    1.000
    C12      C        0.81770    0.86070    0.15670    1.000
    C13      C        0.81630    0.96450    0.21448    1.000
    C14      C        0.63890    0.10590    0.21129    1.000
    C15      C        0.41790    0.57580    0.99867    1.000
    C16      C        0.04680    0.19430    0.34011    1.000
    C17      C        0.18230    0.36070    0.34330    1.000
    C18      C        0.18370    0.46450    0.28552    1.000
    C19      C        0.36110    0.60590    0.28871    1.000
    C20      C        0.58210    0.07580    0.50133    1.000
    O1       O        0.84620    0.28930    0.83336    1.000
    O2       O        0.14560    0.44730    0.84532    1.000
    O3       O        0.39990    0.18600    0.85829    1.000
    O4       O        0.22030    0.14030    0.73470    1.000
    O5       O        0.35040    0.78680    0.82974    1.000
    O6       O        0.51110    0.89800    0.74922    1.000
    O7       O        0.66150    0.36940    0.95368    1.000
    O8       O        0.62330    0.36810    0.05176    1.000
    O9       O        0.15380    0.78930    0.66664    1.000
    O10      O        0.85440    0.94730    0.65468    1.000
    O11      O        0.60010    0.68600    0.64171    1.000
    O12      O        0.77970    0.64030    0.76530    1.000
    O13      O        0.64960    0.28680    0.67026    1.000
    O14      O        0.48890    0.39800    0.75078    1.000
    O15      O        0.33850    0.86940    0.54632    1.000
    O16      O        0.37670    0.86810    0.44824    1.000
    O17      O        0.15380    0.71070    0.16664    1.000
    O18      O        0.85440    0.55270    0.15468    1.000
    O19      O        0.60010    0.81400    0.14171    1.000
    O20      O        0.77970    0.85970    0.26530    1.000
    O21      O        0.64960    0.21320    0.17026    1.000
    O22      O        0.48890    0.10200    0.25078    1.000
    O23      O        0.33850    0.63060    0.04632    1.000
    O24      O        0.37670    0.63190    0.94824    1.000
    O25      O        0.84620    0.21070    0.33336    1.000
    O26      O        0.14560    0.05270    0.34532    1.000
    O27      O        0.39990    0.31400    0.35829    1.000
    O28      O        0.22030    0.35970    0.23470    1.000
    O29      O        0.35040    0.71320    0.32974    1.000
    O30      O        0.51110    0.60200    0.24922    1.000
    O31      O        0.66150    0.13060    0.45368    1.000
    O32      O        0.62330    0.13190    0.55176    1.000
