# CIF file generated by openbabel 3.1.0, see https://openbabel.org
data_I
_chemical_name_common 'image0'
_cell_length_a 8.413
_cell_length_b 11.8306
_cell_length_c 8.9468
_cell_angle_alpha 90
_cell_angle_beta 90
_cell_angle_gamma 90
_space_group_name_H-M_alt 'P 1'
_space_group_name_Hall 'P 1'
loop_
    _symmetry_equiv_pos_as_xyz
    x,y,z
loop_
    _atom_site_label
    _atom_site_type_symbol
    _atom_site_fract_x
    _atom_site_fract_y
    _atom_site_fract_z
    _atom_site_occupancy
    O1       O        0.43878    0.19286    0.11207    1.000
    O2       O        0.59350    0.18212    0.91342    1.000
    O3       O        0.24412    0.40639    0.13090    1.000
    C1       C        0.47710    0.22070    0.98290    1.000
    H1       H        0.41430    0.27410    0.93460    1.000
    O4       O        0.06122    0.80714    0.11207    1.000
    O5       O        0.90650    0.81788    0.91342    1.000
    O6       O        0.25588    0.59361    0.13090    1.000
    C2       C        0.02290    0.77930    0.98290    1.000
    H2       H        0.08570    0.72590    0.93460    1.000
    O7       O        0.06122    0.69286    0.38793    1.000
    O8       O        0.90650    0.68212    0.58658    1.000
    O9       O        0.25588    0.90639    0.36910    1.000
    C3       C        0.02290    0.72070    0.51710    1.000
    H3       H        0.08570    0.77410    0.56540    1.000
    O10      O        0.43878    0.30714    0.38793    1.000
    O11      O        0.59350    0.31788    0.58658    1.000
    O12      O        0.24412    0.09361    0.36910    1.000
    C4       C        0.47710    0.27930    0.51710    1.000
    H4       H        0.41430    0.22590    0.56540    1.000
    O13      O        0.56122    0.80714    0.88793    1.000
    O14      O        0.40650    0.81788    0.08658    1.000
    O15      O        0.75588    0.59361    0.86910    1.000
    C5       C        0.52290    0.77930    0.01710    1.000
    H5       H        0.58570    0.72590    0.06540    1.000
    O16      O        0.93878    0.19286    0.88793    1.000
    O17      O        0.09350    0.18212    0.08658    1.000
    O18      O        0.74412    0.40639    0.86910    1.000
    C6       C        0.97710    0.22070    0.01710    1.000
    H6       H        0.91430    0.27410    0.06540    1.000
    O19      O        0.93878    0.30714    0.61207    1.000
    O20      O        0.09350    0.31788    0.41342    1.000
    O21      O        0.74412    0.09361    0.63090    1.000
    C7       C        0.97710    0.27930    0.48290    1.000
    H7       H        0.91430    0.22590    0.43460    1.000
    O22      O        0.56122    0.69286    0.61207    1.000
    O23      O        0.40650    0.68212    0.41342    1.000
    O24      O        0.75588    0.90639    0.63090    1.000
    C8       C        0.52290    0.72070    0.48290    1.000
    H8       H        0.58570    0.77410    0.43460    1.000
    Fe1      Fe       0.24750    0.25000    0.25000    1.000
    Fe2      Fe       0.25250    0.75000    0.25000    1.000
    Fe3      Fe       0.75250    0.75000    0.75000    1.000
    Fe4      Fe       0.74750    0.25000    0.75000    1.000
    C9       C        0.25000    0.50000    0.19290    1.000
    H9       H        0.25000    0.50000    0.29690    1.000
    C10      C        0.25000    0.00000    0.30710    1.000
    H10      H        0.25000    0.00000    0.20310    1.000
    C11      C        0.75000    0.50000    0.80710    1.000
    H11      H        0.75000    0.50000    0.70310    1.000
    C12      C        0.75000    0.00000    0.69290    1.000
    H12      H        0.75000    0.00000    0.79690    1.000
