# CIF file generated by openbabel 3.1.0, see https://openbabel.org
data_I
_chemical_name_common 'image0'
_cell_length_a 18.7958
_cell_length_b 8.2622
_cell_length_c 18.855
_cell_angle_alpha 90
_cell_angle_beta 90
_cell_angle_gamma 90
_space_group_name_H-M_alt 'P 1'
_space_group_name_Hall 'P 1'
loop_
    _symmetry_equiv_pos_as_xyz
    x,y,z
loop_
    _atom_site_label
    _atom_site_type_symbol
    _atom_site_fract_x
    _atom_site_fract_y
    _atom_site_fract_z
    _atom_site_occupancy
    Ni1      Ni       0.06364    0.98636    0.24743    1.000
    P1       P        0.97321    0.79840    0.36017    1.000
    P2       P        0.95890    0.16290    0.34609    1.000
    O1       O        0.94000    0.63990    0.33800    1.000
    O2       O        0.96410    0.81540    0.44080    1.000
    O3       O        0.04980    0.82620    0.33600    1.000
    O4       O        0.91180    0.29850    0.31970    1.000
    O5       O        0.03450    0.16940    0.31550    1.000
    O6       O        0.95900    0.15970    0.42670    1.000
    O7       O        0.94958    0.95400    0.24127    1.000
    H1       H        0.93930    0.86270    0.22320    1.000
    N1       N        0.67120    0.03860    0.23347    1.000
    C1       C        0.92517    0.96310    0.31462    1.000
    C2       C        0.84451    0.94040    0.32209    1.000
    H2       H        0.84210    0.03520    0.35140    1.000
    H3       H        0.82570    0.87640    0.36030    1.000
    C3       C        0.79429    0.01890    0.26917    1.000
    C4       C        0.81403    0.11870    0.21329    1.000
    H4       H        0.86300    0.14710    0.20590    1.000
    C5       C        0.76085    0.17690    0.16790    1.000
    H5       H        0.77340    0.24480    0.12850    1.000
    C6       C        0.69032    0.13700    0.17971    1.000
    H6       H        0.65430    0.18030    0.14900    1.000
    C7       C        0.72272    0.98190    0.27660    1.000
    H7       H        0.70900    0.91170    0.31480    1.000
    Ni2      Ni       0.43636    0.01364    0.74743    1.000
    P3       P        0.52679    0.20160    0.86017    1.000
    P4       P        0.54110    0.83710    0.84609    1.000
    O8       O        0.56000    0.36010    0.83800    1.000
    O9       O        0.53590    0.18460    0.94080    1.000
    O10      O        0.45020    0.17380    0.83600    1.000
    O11      O        0.58820    0.70150    0.81970    1.000
    O12      O        0.46550    0.83060    0.81550    1.000
    O13      O        0.54100    0.84030    0.92670    1.000
    O14      O        0.55042    0.04600    0.74127    1.000
    H8       H        0.56070    0.13730    0.72320    1.000
    N2       N        0.82880    0.96140    0.73347    1.000
    C8       C        0.57483    0.03690    0.81462    1.000
    C9       C        0.65549    0.05960    0.82209    1.000
    H9       H        0.65790    0.96480    0.85140    1.000
    H10      H        0.67430    0.12360    0.86030    1.000
    C10      C        0.70571    0.98110    0.76917    1.000
    C11      C        0.68597    0.88130    0.71329    1.000
    H11      H        0.63700    0.85290    0.70590    1.000
    C12      C        0.73915    0.82310    0.66790    1.000
    H12      H        0.72660    0.75520    0.62850    1.000
    C13      C        0.80968    0.86300    0.67971    1.000
    H13      H        0.84570    0.81970    0.64900    1.000
    C14      C        0.77728    0.01810    0.77660    1.000
    H14      H        0.79100    0.08830    0.81480    1.000
    Ni3      Ni       0.93636    0.48636    0.25257    1.000
    P5       P        0.02679    0.29840    0.13983    1.000
    P6       P        0.04110    0.66290    0.15391    1.000
    O15      O        0.06000    0.13990    0.16200    1.000
    O16      O        0.03590    0.31540    0.05920    1.000
    O17      O        0.95020    0.32620    0.16400    1.000
    O18      O        0.08820    0.79850    0.18030    1.000
    O19      O        0.96550    0.66940    0.18450    1.000
    O20      O        0.04100    0.65970    0.07330    1.000
    O21      O        0.05042    0.45400    0.25873    1.000
    H15      H        0.06070    0.36270    0.27680    1.000
    N3       N        0.32880    0.53860    0.26653    1.000
    C15      C        0.07483    0.46310    0.18538    1.000
    C16      C        0.15549    0.44040    0.17791    1.000
    H16      H        0.15790    0.53520    0.14860    1.000
    H17      H        0.17430    0.37640    0.13970    1.000
    C17      C        0.20571    0.51890    0.23083    1.000
    C18      C        0.18597    0.61870    0.28671    1.000
    H18      H        0.13700    0.64710    0.29410    1.000
    C19      C        0.23915    0.67690    0.33210    1.000
    H19      H        0.22660    0.74480    0.37150    1.000
    C20      C        0.30968    0.63700    0.32029    1.000
    H20      H        0.34570    0.68030    0.35100    1.000
    C21      C        0.27728    0.48190    0.22340    1.000
    H21      H        0.29100    0.41170    0.18520    1.000
    Ni4      Ni       0.56364    0.51364    0.75257    1.000
    P7       P        0.47321    0.70160    0.63983    1.000
    P8       P        0.45890    0.33710    0.65391    1.000
    O22      O        0.44000    0.86010    0.66200    1.000
    O23      O        0.46410    0.68460    0.55920    1.000
    O24      O        0.54980    0.67380    0.66400    1.000
    O25      O        0.41180    0.20150    0.68030    1.000
    O26      O        0.53450    0.33060    0.68450    1.000
    O27      O        0.45900    0.34030    0.57330    1.000
    O28      O        0.44958    0.54600    0.75873    1.000
    H22      H        0.43930    0.63730    0.77680    1.000
    N4       N        0.17120    0.46140    0.76653    1.000
    C22      C        0.42517    0.53690    0.68538    1.000
    C23      C        0.34451    0.55960    0.67791    1.000
    H23      H        0.34210    0.46480    0.64860    1.000
    H24      H        0.32570    0.62360    0.63970    1.000
    C24      C        0.29429    0.48110    0.73083    1.000
    C25      C        0.31403    0.38130    0.78671    1.000
    H25      H        0.36300    0.35290    0.79410    1.000
    C26      C        0.26085    0.32310    0.83210    1.000
    H26      H        0.27340    0.25520    0.87150    1.000
    C27      C        0.19032    0.36300    0.82029    1.000
    H27      H        0.15430    0.31970    0.85100    1.000
    C28      C        0.22272    0.51810    0.72340    1.000
    H28      H        0.20900    0.58830    0.68520    1.000
    Ni5      Ni       0.93636    0.01364    0.75257    1.000
    P9       P        0.02679    0.20160    0.63983    1.000
    P10      P        0.04110    0.83710    0.65391    1.000
    O29      O        0.06000    0.36010    0.66200    1.000
    O30      O        0.03590    0.18460    0.55920    1.000
    O31      O        0.95020    0.17380    0.66400    1.000
    O32      O        0.08820    0.70150    0.68030    1.000
    O33      O        0.96550    0.83060    0.68450    1.000
    O34      O        0.04100    0.84030    0.57330    1.000
    O35      O        0.05042    0.04600    0.75873    1.000
    H29      H        0.06070    0.13730    0.77680    1.000
    N5       N        0.32880    0.96140    0.76653    1.000
    C29      C        0.07483    0.03690    0.68538    1.000
    C30      C        0.15549    0.05960    0.67791    1.000
    H30      H        0.15790    0.96480    0.64860    1.000
    H31      H        0.17430    0.12360    0.63970    1.000
    C31      C        0.20571    0.98110    0.73083    1.000
    C32      C        0.18597    0.88130    0.78671    1.000
    H32      H        0.13700    0.85290    0.79410    1.000
    C33      C        0.23915    0.82310    0.83210    1.000
    H33      H        0.22660    0.75520    0.87150    1.000
    C34      C        0.30968    0.86300    0.82029    1.000
    H34      H        0.34570    0.81970    0.85100    1.000
    C35      C        0.27728    0.01810    0.72340    1.000
    H35      H        0.29100    0.08830    0.68520    1.000
    Ni6      Ni       0.56364    0.98636    0.25257    1.000
    P11      P        0.47321    0.79840    0.13983    1.000
    P12      P        0.45890    0.16290    0.15391    1.000
    O36      O        0.44000    0.63990    0.16200    1.000
    O37      O        0.46410    0.81540    0.05920    1.000
    O38      O        0.54980    0.82620    0.16400    1.000
    O39      O        0.41180    0.29850    0.18030    1.000
    O40      O        0.53450    0.16940    0.18450    1.000
    O41      O        0.45900    0.15970    0.07330    1.000
    O42      O        0.44958    0.95400    0.25873    1.000
    H36      H        0.43930    0.86270    0.27680    1.000
    N6       N        0.17120    0.03860    0.26653    1.000
    C36      C        0.42517    0.96310    0.18538    1.000
    C37      C        0.34451    0.94040    0.17791    1.000
    H37      H        0.34210    0.03520    0.14860    1.000
    H38      H        0.32570    0.87640    0.13970    1.000
    C38      C        0.29429    0.01890    0.23083    1.000
    C39      C        0.31403    0.11870    0.28671    1.000
    H39      H        0.36300    0.14710    0.29410    1.000
    C40      C        0.26085    0.17690    0.33210    1.000
    H40      H        0.27340    0.24480    0.37150    1.000
    C41      C        0.19032    0.13700    0.32029    1.000
    H41      H        0.15430    0.18030    0.35100    1.000
    C42      C        0.22272    0.98190    0.22340    1.000
    H42      H        0.20900    0.91170    0.18520    1.000
    Ni7      Ni       0.06364    0.51364    0.74743    1.000
    P13      P        0.97321    0.70160    0.86017    1.000
    P14      P        0.95890    0.33710    0.84609    1.000
    O43      O        0.94000    0.86010    0.83800    1.000
    O44      O        0.96410    0.68460    0.94080    1.000
    O45      O        0.04980    0.67380    0.83600    1.000
    O46      O        0.91180    0.20150    0.81970    1.000
    O47      O        0.03450    0.33060    0.81550    1.000
    O48      O        0.95900    0.34030    0.92670    1.000
    O49      O        0.94958    0.54600    0.74127    1.000
    H43      H        0.93930    0.63730    0.72320    1.000
    N7       N        0.67120    0.46140    0.73347    1.000
    C43      C        0.92517    0.53690    0.81462    1.000
    C44      C        0.84451    0.55960    0.82209    1.000
    H44      H        0.84210    0.46480    0.85140    1.000
    H45      H        0.82570    0.62360    0.86030    1.000
    C45      C        0.79429    0.48110    0.76917    1.000
    C46      C        0.81403    0.38130    0.71329    1.000
    H46      H        0.86300    0.35290    0.70590    1.000
    C47      C        0.76085    0.32310    0.66790    1.000
    H47      H        0.77340    0.25520    0.62850    1.000
    C48      C        0.69032    0.36300    0.67971    1.000
    H48      H        0.65430    0.31970    0.64900    1.000
    C49      C        0.72272    0.51810    0.77660    1.000
    H49      H        0.70900    0.58830    0.81480    1.000
    Ni8      Ni       0.43636    0.48636    0.24743    1.000
    P15      P        0.52679    0.29840    0.36017    1.000
    P16      P        0.54110    0.66290    0.34609    1.000
    O50      O        0.56000    0.13990    0.33800    1.000
    O51      O        0.53590    0.31540    0.44080    1.000
    O52      O        0.45020    0.32620    0.33600    1.000
    O53      O        0.58820    0.79850    0.31970    1.000
    O54      O        0.46550    0.66940    0.31550    1.000
    O55      O        0.54100    0.65970    0.42670    1.000
    O56      O        0.55042    0.45400    0.24127    1.000
    H50      H        0.56070    0.36270    0.22320    1.000
    N8       N        0.82880    0.53860    0.23347    1.000
    C50      C        0.57483    0.46310    0.31462    1.000
    C51      C        0.65549    0.44040    0.32209    1.000
    H51      H        0.65790    0.53520    0.35140    1.000
    H52      H        0.67430    0.37640    0.36030    1.000
    C52      C        0.70571    0.51890    0.26917    1.000
    C53      C        0.68597    0.61870    0.21329    1.000
    H53      H        0.63700    0.64710    0.20590    1.000
    C54      C        0.73915    0.67690    0.16790    1.000
    H54      H        0.72660    0.74480    0.12850    1.000
    C55      C        0.80968    0.63700    0.17971    1.000
    H55      H        0.84570    0.68030    0.14900    1.000
    C56      C        0.77728    0.48190    0.27660    1.000
    H56      H        0.79100    0.41170    0.31480    1.000
    Ni9      Ni       0.00000    0.00000    0.50000    1.000
    Ni10     Ni       0.50000    0.00000    0.00000    1.000
    Ni11     Ni       0.00000    0.50000    0.00000    1.000
    Ni12     Ni       0.50000    0.50000    0.50000    1.000
