# CIF file generated by openbabel 3.1.0, see https://openbabel.org
data_I
_chemical_name_common 'MURTUO_clean'
_cell_length_a 5.224
_cell_length_b 8.8
_cell_length_c 26.055
_cell_angle_alpha 90
_cell_angle_beta 90
_cell_angle_gamma 97.38
_space_group_name_H-M_alt 'P 1'
_space_group_name_Hall 'P 1'
loop_
    _symmetry_equiv_pos_as_xyz
    x,y,z
loop_
    _atom_site_label
    _atom_site_type_symbol
    _atom_site_fract_x
    _atom_site_fract_y
    _atom_site_fract_z
    _atom_site_occupancy
    Lu1      Lu       0.59652    0.47856    0.65917    1.000
    Lu2      Lu       0.40348    0.02144    0.15917    1.000
    Lu3      Lu       0.40348    0.52144    0.34083    1.000
    Lu4      Lu       0.59652    0.97856    0.84083    1.000
    H1       H        0.99500    0.88000    0.64420    1.000
    H2       H        0.94400    0.85100    0.70160    1.000
    H3       H        0.41400    0.98700    0.66470    1.000
    H4       H        0.23100    0.07900    0.69430    1.000
    H5       H        0.77620    0.55000    0.48300    1.000
    H6       H        0.99950    0.65260    0.51110    1.000
    H7       H        0.00500    0.62000    0.14420    1.000
    H8       H        0.05600    0.64900    0.20160    1.000
    H9       H        0.58600    0.51300    0.16470    1.000
    H10      H        0.76900    0.42100    0.19430    1.000
    H11      H        0.22380    0.95000    0.98300    1.000
    H12      H        0.00050    0.84740    0.01110    1.000
    H13      H        0.00500    0.12000    0.35580    1.000
    H14      H        0.05600    0.14900    0.29840    1.000
    H15      H        0.58600    0.01300    0.33530    1.000
    H16      H        0.76900    0.92100    0.30570    1.000
    H17      H        0.22380    0.45000    0.51700    1.000
    H18      H        0.00050    0.34740    0.48890    1.000
    H19      H        0.99500    0.38000    0.85580    1.000
    H20      H        0.94400    0.35100    0.79840    1.000
    H21      H        0.41400    0.48700    0.83530    1.000
    H22      H        0.23100    0.57900    0.80570    1.000
    H23      H        0.77620    0.05000    0.01700    1.000
    H24      H        0.99950    0.15260    0.98890    1.000
    C1       C        0.16500    0.70460    0.66850    1.000
    C2       C        0.07640    0.85830    0.67597    1.000
    C3       C        0.29000    0.98410    0.68985    1.000
    C4       C        0.41320    0.96700    0.74140    1.000
    C5       C        0.78030    0.51050    0.55961    1.000
    C6       C        0.90970    0.54920    0.50886    1.000
    C7       C        0.83500    0.79540    0.16850    1.000
    C8       C        0.92360    0.64170    0.17597    1.000
    C9       C        0.71000    0.51590    0.18985    1.000
    C10      C        0.58680    0.53300    0.24140    1.000
    C11      C        0.21970    0.98950    0.05961    1.000
    C12      C        0.09030    0.95080    0.00886    1.000
    C13      C        0.83500    0.29540    0.33150    1.000
    C14      C        0.92360    0.14170    0.32403    1.000
    C15      C        0.71000    0.01590    0.31015    1.000
    C16      C        0.58680    0.03300    0.25860    1.000
    C17      C        0.21970    0.48950    0.44039    1.000
    C18      C        0.09030    0.45080    0.49114    1.000
    C19      C        0.16500    0.20460    0.83150    1.000
    C20      C        0.07640    0.35830    0.82403    1.000
    C21      C        0.29000    0.48410    0.81015    1.000
    C22      C        0.41320    0.46700    0.75860    1.000
    C23      C        0.78030    0.01050    0.94039    1.000
    C24      C        0.90970    0.04920    0.99114    1.000
    O1       O        0.40000    0.69240    0.66646    1.000
    O2       O        0.99590    0.58970    0.66387    1.000
    O3       O        0.62690    0.04610    0.75162    1.000
    O4       O        0.30230    0.88020    0.77586    1.000
    O5       O        0.81130    0.39010    0.58401    1.000
    O6       O        0.64220    0.60370    0.57821    1.000
    O7       O        0.60000    0.80760    0.16646    1.000
    O8       O        0.00410    0.91030    0.16387    1.000
    O9       O        0.37310    0.45390    0.25162    1.000
    O10      O        0.69770    0.61980    0.27586    1.000
    O11      O        0.18870    0.10990    0.08401    1.000
    O12      O        0.35780    0.89630    0.07821    1.000
    O13      O        0.60000    0.30760    0.33354    1.000
    O14      O        0.00410    0.41030    0.33613    1.000
    O15      O        0.37310    0.95390    0.24838    1.000
    O16      O        0.69770    0.11980    0.22414    1.000
    O17      O        0.18870    0.60990    0.41599    1.000
    O18      O        0.35780    0.39630    0.42179    1.000
    O19      O        0.40000    0.19240    0.83354    1.000
    O20      O        0.99590    0.08970    0.83613    1.000
    O21      O        0.62690    0.54610    0.74838    1.000
    O22      O        0.30230    0.38020    0.72414    1.000
    O23      O        0.81130    0.89010    0.91599    1.000
    O24      O        0.64220    0.10370    0.92179    1.000
