# CIF file generated by openbabel 3.1.0, see https://openbabel.org
data_I
_chemical_name_common 'image0'
_cell_length_a 8.8839
_cell_length_b 33.6507
_cell_length_c 8.8737
_cell_angle_alpha 90
_cell_angle_beta 108.061
_cell_angle_gamma 90
_space_group_name_H-M_alt 'P 1'
_space_group_name_Hall 'P 1'
loop_
    _symmetry_equiv_pos_as_xyz
    x,y,z
loop_
    _atom_site_label
    _atom_site_type_symbol
    _atom_site_fract_x
    _atom_site_fract_y
    _atom_site_fract_z
    _atom_site_occupancy
    Cu1      Cu       0.74130    0.20440    0.50962    1.000
    Cu2      Cu       0.74332    0.04543    0.50405    1.000
    O1       O        0.87963    0.15559    0.63219    1.000
    O2       O        0.85803    0.09038    0.63416    1.000
    O3       O        0.61330    0.15974    0.38692    1.000
    O4       O        0.61590    0.09448    0.36300    1.000
    O5       O        0.61354    0.20848    0.67168    1.000
    O6       O        0.59520    0.24936    0.85920    1.000
    O7       O        0.86850    0.24638    0.65190    1.000
    O8       O        0.85960    0.28712    0.84460    1.000
    O9       O        0.90990    0.04002    0.38242    1.000
    O10      O        0.09080    0.99851    0.35260    1.000
    O11      O        0.57880    0.03951    0.62526    1.000
    O12      O        0.38380    0.99843    0.62520    1.000
    C1       C        0.81560    0.12405    0.57880    1.000
    C2       C        0.66740    0.12612    0.42840    1.000
    C3       C        0.81020    0.25913    0.75220    1.000
    C4       C        0.66000    0.23736    0.76360    1.000
    C5       C        0.00140    0.01091    0.42350    1.000
    C6       C        0.48940    0.01116    0.57220    1.000
    Cu3      Cu       0.25870    0.70440    0.99038    1.000
    Cu4      Cu       0.25668    0.54543    0.99595    1.000
    O13      O        0.12037    0.65559    0.86781    1.000
    O14      O        0.14197    0.59038    0.86584    1.000
    O15      O        0.38670    0.65974    0.11308    1.000
    O16      O        0.38410    0.59448    0.13700    1.000
    O17      O        0.38646    0.70848    0.82832    1.000
    O18      O        0.40480    0.74936    0.64080    1.000
    O19      O        0.13150    0.74638    0.84810    1.000
    O20      O        0.14040    0.78712    0.65540    1.000
    O21      O        0.09010    0.54002    0.11758    1.000
    O22      O        0.90920    0.49851    0.14740    1.000
    O23      O        0.42120    0.53951    0.87474    1.000
    O24      O        0.61620    0.49843    0.87480    1.000
    C7       C        0.18440    0.62405    0.92120    1.000
    C8       C        0.33260    0.62612    0.07160    1.000
    C9       C        0.18980    0.75913    0.74780    1.000
    C10      C        0.34000    0.73736    0.73640    1.000
    C11      C        0.99860    0.51091    0.07650    1.000
    C12      C        0.51060    0.51116    0.92780    1.000
    Cu5      Cu       0.25870    0.79560    0.49038    1.000
    Cu6      Cu       0.25668    0.95457    0.49595    1.000
    O25      O        0.12037    0.84441    0.36781    1.000
    O26      O        0.14197    0.90962    0.36584    1.000
    O27      O        0.38670    0.84026    0.61308    1.000
    O28      O        0.38410    0.90552    0.63700    1.000
    O29      O        0.38646    0.79152    0.32832    1.000
    O30      O        0.40480    0.75064    0.14080    1.000
    O31      O        0.13150    0.75362    0.34810    1.000
    O32      O        0.14040    0.71288    0.15540    1.000
    O33      O        0.09010    0.95998    0.61758    1.000
    O34      O        0.90920    0.00149    0.64740    1.000
    O35      O        0.42120    0.96049    0.37474    1.000
    O36      O        0.61620    0.00157    0.37480    1.000
    C13      C        0.18440    0.87595    0.42120    1.000
    C14      C        0.33260    0.87388    0.57160    1.000
    C15      C        0.18980    0.74087    0.24780    1.000
    C16      C        0.34000    0.76264    0.23640    1.000
    C17      C        0.99860    0.98909    0.57650    1.000
    C18      C        0.51060    0.98884    0.42780    1.000
    Cu7      Cu       0.74130    0.29560    0.00962    1.000
    Cu8      Cu       0.74332    0.45457    0.00405    1.000
    O37      O        0.87963    0.34441    0.13219    1.000
    O38      O        0.85803    0.40962    0.13416    1.000
    O39      O        0.61330    0.34026    0.88692    1.000
    O40      O        0.61590    0.40552    0.86300    1.000
    O41      O        0.61354    0.29152    0.17168    1.000
    O42      O        0.59520    0.25064    0.35920    1.000
    O43      O        0.86850    0.25362    0.15190    1.000
    O44      O        0.85960    0.21288    0.34460    1.000
    O45      O        0.90990    0.45998    0.88242    1.000
    O46      O        0.09080    0.50149    0.85260    1.000
    O47      O        0.57880    0.46049    0.12526    1.000
    O48      O        0.38380    0.50157    0.12520    1.000
    C19      C        0.81560    0.37595    0.07880    1.000
    C20      C        0.66740    0.37388    0.92840    1.000
    C21      C        0.81020    0.24087    0.25220    1.000
    C22      C        0.66000    0.26264    0.26360    1.000
    C23      C        0.00140    0.48909    0.92350    1.000
    C24      C        0.48940    0.48884    0.07220    1.000
