# CIF file generated by openbabel 3.1.0, see https://openbabel.org
data_I
_chemical_name_common 'image0'
_cell_length_a 11.2487
_cell_length_b 7.1296
_cell_length_c 6.5731
_cell_angle_alpha 90
_cell_angle_beta 109.51
_cell_angle_gamma 90
_space_group_name_H-M_alt 'P 1'
_space_group_name_Hall 'P 1'
loop_
    _symmetry_equiv_pos_as_xyz
    x,y,z
loop_
    _atom_site_label
    _atom_site_type_symbol
    _atom_site_fract_x
    _atom_site_fract_y
    _atom_site_fract_z
    _atom_site_occupancy
    O1       O        0.99250    0.75930    0.66470    1.000
    O2       O        0.17060    0.70700    0.11450    1.000
    O3       O        0.34630    0.56420    0.11780    1.000
    C1       C        0.23580    0.60930    0.03510    1.000
    H1       H        0.19550    0.56520    0.89580    1.000
    O4       O        0.49250    0.25930    0.66470    1.000
    O5       O        0.67060    0.20700    0.11450    1.000
    O6       O        0.84630    0.06420    0.11780    1.000
    C2       C        0.73580    0.10930    0.03510    1.000
    H2       H        0.69550    0.06520    0.89580    1.000
    O7       O        0.00750    0.75930    0.33530    1.000
    O8       O        0.82940    0.70700    0.88550    1.000
    O9       O        0.65370    0.56420    0.88220    1.000
    C3       C        0.76420    0.60930    0.96490    1.000
    H3       H        0.80450    0.56520    0.10420    1.000
    O10      O        0.50750    0.25930    0.33530    1.000
    O11      O        0.32940    0.20700    0.88550    1.000
    O12      O        0.15370    0.06420    0.88220    1.000
    C4       C        0.26420    0.10930    0.96490    1.000
    H4       H        0.30450    0.06520    0.10420    1.000
    Ho1      Ho       0.00000    0.90470    0.00000    1.000
    Ho2      Ho       0.50000    0.40470    0.00000    1.000
    C5       C        0.00000    0.83790    0.50000    1.000
    H5       H        0.00000    0.96840    0.50000    1.000
    C6       C        0.50000    0.33790    0.50000    1.000
    H6       H        0.50000    0.46840    0.50000    1.000
