# CIF file generated by openbabel 3.1.0, see https://openbabel.org
data_I
_chemical_name_common 'XEGKEB_clean'
_cell_length_a 13.362
_cell_length_b 19.4868
_cell_length_c 19.4868
_cell_angle_alpha 101.901
_cell_angle_beta 93.0394
_cell_angle_gamma 93.0394
_space_group_name_H-M_alt 'P 1'
_space_group_name_Hall 'P 1'
loop_
    _symmetry_equiv_pos_as_xyz
    x,y,z
loop_
    _atom_site_label
    _atom_site_type_symbol
    _atom_site_fract_x
    _atom_site_fract_y
    _atom_site_fract_z
    _atom_site_occupancy
    Gd1      Gd       0.35252    0.48746    0.96326    1.000
    Gd2      Gd       0.14748    0.03674    0.51254    1.000
    Gd3      Gd       0.64748    0.51254    0.03674    1.000
    Gd4      Gd       0.85252    0.96326    0.48746    1.000
    H1       H        0.56900    0.38600    0.19700    1.000
    H2       H        0.29950    0.33200    0.09860    1.000
    H3       H        0.28650    0.24820    0.44420    1.000
    H4       H        0.34010    0.07300    0.30880    1.000
    H5       H        0.67330    0.34940    0.93220    1.000
    H6       H        0.49380    0.33740    0.75940    1.000
    H7       H        0.93100    0.80300    0.61400    1.000
    H8       H        0.20050    0.90140    0.66800    1.000
    H9       H        0.21350    0.55580    0.75180    1.000
    H10      H        0.15990    0.69120    0.92700    1.000
    H11      H        0.82670    0.06780    0.65060    1.000
    H12      H        0.00620    0.24060    0.66260    1.000
    H13      H        0.43100    0.61400    0.80300    1.000
    H14      H        0.70050    0.66800    0.90140    1.000
    H15      H        0.71350    0.75180    0.55580    1.000
    H16      H        0.65990    0.92700    0.69120    1.000
    H17      H        0.32670    0.65060    0.06780    1.000
    H18      H        0.50620    0.66260    0.24060    1.000
    H19      H        0.06900    0.19700    0.38600    1.000
    H20      H        0.79950    0.09860    0.33200    1.000
    H21      H        0.78650    0.44420    0.24820    1.000
    H22      H        0.84010    0.30880    0.07300    1.000
    H23      H        0.17330    0.93220    0.34940    1.000
    H24      H        0.99380    0.75940    0.33740    1.000
    C1       C        0.46000    0.41250    0.08770    1.000
    C2       C        0.43810    0.36460    0.13920    1.000
    C3       C        0.50740    0.36040    0.19200    1.000
    C4       C        0.48370    0.31710    0.23770    1.000
    C5       C        0.39330    0.27670    0.23430    1.000
    C6       C        0.32170    0.28800    0.18140    1.000
    C7       C        0.34640    0.32870    0.13450    1.000
    C8       C        0.36750    0.23430    0.28770    1.000
    C9       C        0.33320    0.26380    0.35160    1.000
    C10      C        0.30490    0.22530    0.40030    1.000
    C11      C        0.30400    0.15310    0.38370    1.000
    C12      C        0.33960    0.12170    0.32110    1.000
    C13      C        0.37520    0.16300    0.27580    1.000
    C14      C        0.26260    0.10990    0.43330    1.000
    C15      C        0.50600    0.40040    0.89540    1.000
    C16      C        0.57650    0.35540    0.85180    1.000
    C17      C        0.66060    0.33550    0.88370    1.000
    C18      C        0.72760    0.29420    0.84340    1.000
    C19      C        0.71300    0.27480    0.77060    1.000
    C20      C        0.62300    0.29180    0.74180    1.000
    C21      C        0.55500    0.32940    0.78060    1.000
    C22      C        0.04000    0.91230    0.58750    1.000
    C23      C        0.06190    0.86080    0.63540    1.000
    C24      C        0.99260    0.80800    0.63960    1.000
    C25      C        0.01630    0.76230    0.68290    1.000
    C26      C        0.10670    0.76570    0.72330    1.000
    C27      C        0.17830    0.81860    0.71200    1.000
    C28      C        0.15360    0.86550    0.67130    1.000
    C29      C        0.13250    0.71230    0.76570    1.000
    C30      C        0.16680    0.64840    0.73620    1.000
    C31      C        0.19510    0.59970    0.77470    1.000
    C32      C        0.19600    0.61630    0.84690    1.000
    C33      C        0.16040    0.67890    0.87830    1.000
    C34      C        0.12480    0.72420    0.83700    1.000
    C35      C        0.23740    0.56670    0.89010    1.000
    C36      C        0.99400    0.10460    0.59960    1.000
    C37      C        0.92350    0.14820    0.64460    1.000
    C38      C        0.83940    0.11630    0.66450    1.000
    C39      C        0.77240    0.15660    0.70580    1.000
    C40      C        0.78700    0.22940    0.72520    1.000
    C41      C        0.87700    0.25820    0.70820    1.000
    C42      C        0.94500    0.21940    0.67060    1.000
    C43      C        0.54000    0.58750    0.91230    1.000
    C44      C        0.56190    0.63540    0.86080    1.000
    C45      C        0.49260    0.63960    0.80800    1.000
    C46      C        0.51630    0.68290    0.76230    1.000
    C47      C        0.60670    0.72330    0.76570    1.000
    C48      C        0.67830    0.71200    0.81860    1.000
    C49      C        0.65360    0.67130    0.86550    1.000
    C50      C        0.63250    0.76570    0.71230    1.000
    C51      C        0.66680    0.73620    0.64840    1.000
    C52      C        0.69510    0.77470    0.59970    1.000
    C53      C        0.69600    0.84690    0.61630    1.000
    C54      C        0.66040    0.87830    0.67890    1.000
    C55      C        0.62480    0.83700    0.72420    1.000
    C56      C        0.73740    0.89010    0.56670    1.000
    C57      C        0.49400    0.59960    0.10460    1.000
    C58      C        0.42350    0.64460    0.14820    1.000
    C59      C        0.33940    0.66450    0.11630    1.000
    C60      C        0.27240    0.70580    0.15660    1.000
    C61      C        0.28700    0.72520    0.22940    1.000
    C62      C        0.37700    0.70820    0.25820    1.000
    C63      C        0.44500    0.67060    0.21940    1.000
    C64      C        0.96000    0.08770    0.41250    1.000
    C65      C        0.93810    0.13920    0.36460    1.000
    C66      C        0.00740    0.19200    0.36040    1.000
    C67      C        0.98370    0.23770    0.31710    1.000
    C68      C        0.89330    0.23430    0.27670    1.000
    C69      C        0.82170    0.18140    0.28800    1.000
    C70      C        0.84640    0.13450    0.32870    1.000
    C71      C        0.86750    0.28770    0.23430    1.000
    C72      C        0.83320    0.35160    0.26380    1.000
    C73      C        0.80490    0.40030    0.22530    1.000
    C74      C        0.80400    0.38370    0.15310    1.000
    C75      C        0.83960    0.32110    0.12170    1.000
    C76      C        0.87520    0.27580    0.16300    1.000
    C77      C        0.76260    0.43330    0.10990    1.000
    C78      C        0.00600    0.89540    0.40040    1.000
    C79      C        0.07650    0.85180    0.35540    1.000
    C80      C        0.16060    0.88370    0.33550    1.000
    C81      C        0.22760    0.84340    0.29420    1.000
    C82      C        0.21300    0.77060    0.27480    1.000
    C83      C        0.12300    0.74180    0.29180    1.000
    C84      C        0.05500    0.78060    0.32940    1.000
    N1       N        0.55940    0.31630    0.29590    1.000
    N2       N        0.22300    0.25280    0.17340    1.000
    N3       N        0.32930    0.34290    0.37550    1.000
    N4       N        0.41470    0.12720    0.21180    1.000
    N5       N        0.81690    0.27420    0.87840    1.000
    N6       N        0.60200    0.27220    0.66280    1.000
    N7       N        0.94060    0.70410    0.68370    1.000
    N8       N        0.27700    0.82660    0.74720    1.000
    N9       N        0.17070    0.62450    0.65710    1.000
    N10      N        0.08530    0.78820    0.87280    1.000
    N11      N        0.68310    0.12160    0.72580    1.000
    N12      N        0.89800    0.33720    0.72780    1.000
    N13      N        0.44060    0.68370    0.70410    1.000
    N14      N        0.77700    0.74720    0.82660    1.000
    N15      N        0.67070    0.65710    0.62450    1.000
    N16      N        0.58530    0.87280    0.78820    1.000
    N17      N        0.18310    0.72580    0.12160    1.000
    N18      N        0.39800    0.72780    0.33720    1.000
    N19      N        0.05940    0.29590    0.31630    1.000
    N20      N        0.72300    0.17340    0.25280    1.000
    N21      N        0.82930    0.37550    0.34290    1.000
    N22      N        0.91470    0.21180    0.12720    1.000
    N23      N        0.31690    0.87840    0.27420    1.000
    N24      N        0.10200    0.66280    0.27220    1.000
    O1       O        0.38980    0.41690    0.04510    1.000
    O2       O        0.54540    0.44400    0.09820    1.000
    O3       O        0.25080    0.13920    0.49420    1.000
    O4       O        0.23610    0.04790    0.40710    1.000
    O5       O        0.61900    0.36570    0.31030    1.000
    O6       O        0.55220    0.28520    0.33660    1.000
    O7       O        0.15870    0.27370    0.14050    1.000
    O8       O        0.20300    0.20890    0.20710    1.000
    O9       O        0.31800    0.37570    0.32990    1.000
    O10      O        0.33500    0.36690    0.43910    1.000
    O11      O        0.45200    0.15740    0.17140    1.000
    O12      O        0.42500    0.06430    0.20470    1.000
    O13      O        0.41590    0.39910    0.87010    1.000
    O14      O        0.53880    0.43930    0.95210    1.000
    O15      O        0.81800    0.27460    0.93700    1.000
    O16      O        0.89200    0.27180    0.85220    1.000
    O17      O        0.67000    0.26160    0.62360    1.000
    O18      O        0.51700    0.26830    0.64130    1.000
    O19      O        0.11020    0.95490    0.58310    1.000
    O20      O        0.95460    0.90180    0.55600    1.000
    O21      O        0.24920    0.50580    0.86080    1.000
    O22      O        0.26390    0.59290    0.95210    1.000
    O23      O        0.88100    0.68970    0.63430    1.000
    O24      O        0.94780    0.66340    0.71480    1.000
    O25      O        0.34130    0.85950    0.72630    1.000
    O26      O        0.29700    0.79290    0.79110    1.000
    O27      O        0.18200    0.67010    0.62430    1.000
    O28      O        0.16500    0.56090    0.63310    1.000
    O29      O        0.04800    0.82860    0.84260    1.000
    O30      O        0.07500    0.79530    0.93570    1.000
    O31      O        0.08410    0.12990    0.60090    1.000
    O32      O        0.96120    0.04790    0.56070    1.000
    O33      O        0.68200    0.06300    0.72540    1.000
    O34      O        0.60800    0.14780    0.72820    1.000
    O35      O        0.83000    0.37640    0.73840    1.000
    O36      O        0.98300    0.35870    0.73170    1.000
    O37      O        0.61020    0.58310    0.95490    1.000
    O38      O        0.45460    0.55600    0.90180    1.000
    O39      O        0.74920    0.86080    0.50580    1.000
    O40      O        0.76390    0.95210    0.59290    1.000
    O41      O        0.38100    0.63430    0.68970    1.000
    O42      O        0.44780    0.71480    0.66340    1.000
    O43      O        0.84130    0.72630    0.85950    1.000
    O44      O        0.79700    0.79110    0.79290    1.000
    O45      O        0.68200    0.62430    0.67010    1.000
    O46      O        0.66500    0.63310    0.56090    1.000
    O47      O        0.54800    0.84260    0.82860    1.000
    O48      O        0.57500    0.93570    0.79530    1.000
    O49      O        0.58410    0.60090    0.12990    1.000
    O50      O        0.46120    0.56070    0.04790    1.000
    O51      O        0.18200    0.72540    0.06300    1.000
    O52      O        0.10800    0.72820    0.14780    1.000
    O53      O        0.33000    0.73840    0.37640    1.000
    O54      O        0.48300    0.73170    0.35870    1.000
    O55      O        0.88980    0.04510    0.41690    1.000
    O56      O        0.04540    0.09820    0.44400    1.000
    O57      O        0.75080    0.49420    0.13920    1.000
    O58      O        0.73610    0.40710    0.04790    1.000
    O59      O        0.11900    0.31030    0.36570    1.000
    O60      O        0.05220    0.33660    0.28520    1.000
    O61      O        0.65870    0.14050    0.27370    1.000
    O62      O        0.70300    0.20710    0.20890    1.000
    O63      O        0.81800    0.32990    0.37570    1.000
    O64      O        0.83500    0.43910    0.36690    1.000
    O65      O        0.95200    0.17140    0.15740    1.000
    O66      O        0.92500    0.20470    0.06430    1.000
    O67      O        0.91590    0.87010    0.39910    1.000
    O68      O        0.03880    0.95210    0.43930    1.000
    O69      O        0.31800    0.93700    0.27460    1.000
    O70      O        0.39200    0.85220    0.27180    1.000
    O71      O        0.17000    0.62360    0.26160    1.000
    O72      O        0.01700    0.64130    0.26830    1.000
