# CIF file generated by openbabel 3.1.0, see https://openbabel.org
data_I
_chemical_name_common 'image0'
_cell_length_a 9.819
_cell_length_b 23.3265
_cell_length_c 8.9342
_cell_angle_alpha 90
_cell_angle_beta 90
_cell_angle_gamma 90
_space_group_name_H-M_alt 'P 1'
_space_group_name_Hall 'P 1'
loop_
    _symmetry_equiv_pos_as_xyz
    x,y,z
loop_
    _atom_site_label
    _atom_site_type_symbol
    _atom_site_fract_x
    _atom_site_fract_y
    _atom_site_fract_z
    _atom_site_occupancy
    Zn1      Zn       0.55949    0.04696    0.71889    1.000
    P1       P        0.57510    0.18428    0.76350    1.000
    H1       H        0.49480    0.20260    0.71930    1.000
    P2       P        0.28745    0.00285    0.56270    1.000
    H2       H        0.29150    0.03860    0.50520    1.000
    O1       O        0.53450    0.12290    0.79650    1.000
    O2       O        0.38720    0.00870    0.69100    1.000
    O3       O        0.32590    0.95490    0.45730    1.000
    O4       O        0.14230    0.99640    0.61790    1.000
    O5       O        0.60380    0.21580    0.90690    1.000
    O6       O        0.68650    0.18770    0.64660    1.000
    Zn2      Zn       0.94051    0.45304    0.71889    1.000
    P3       P        0.92490    0.31572    0.76350    1.000
    H3       H        0.00520    0.29740    0.71930    1.000
    P4       P        0.21255    0.49715    0.56270    1.000
    H4       H        0.20850    0.46140    0.50520    1.000
    O7       O        0.96550    0.37710    0.79650    1.000
    O8       O        0.11280    0.49130    0.69100    1.000
    O9       O        0.17410    0.54510    0.45730    1.000
    O10      O        0.35770    0.50360    0.61790    1.000
    O11      O        0.89620    0.28420    0.90690    1.000
    O12      O        0.81350    0.31230    0.64660    1.000
    Zn3      Zn       0.44051    0.54696    0.78111    1.000
    P5       P        0.42490    0.68428    0.73650    1.000
    H5       H        0.50520    0.70260    0.78070    1.000
    P6       P        0.71255    0.50285    0.93730    1.000
    H6       H        0.70850    0.53860    0.99480    1.000
    O13      O        0.46550    0.62290    0.70350    1.000
    O14      O        0.61280    0.50870    0.80900    1.000
    O15      O        0.67410    0.45490    0.04270    1.000
    O16      O        0.85770    0.49640    0.88210    1.000
    O17      O        0.39620    0.71580    0.59310    1.000
    O18      O        0.31350    0.68770    0.85340    1.000
    Zn4      Zn       0.05949    0.95304    0.78111    1.000
    P7       P        0.07510    0.81572    0.73650    1.000
    H7       H        0.99480    0.79740    0.78070    1.000
    P8       P        0.78745    0.99715    0.93730    1.000
    H8       H        0.79150    0.96140    0.99480    1.000
    O19      O        0.03450    0.87710    0.70350    1.000
    O20      O        0.88720    0.99130    0.80900    1.000
    O21      O        0.82590    0.04510    0.04270    1.000
    O22      O        0.64230    0.00360    0.88210    1.000
    O23      O        0.10380    0.78420    0.59310    1.000
    O24      O        0.18650    0.81230    0.85340    1.000
    Zn5      Zn       0.44051    0.95304    0.28111    1.000
    P9       P        0.42490    0.81572    0.23650    1.000
    H9       H        0.50520    0.79740    0.28070    1.000
    P10      P        0.71255    0.99715    0.43730    1.000
    H10      H        0.70850    0.96140    0.49480    1.000
    O25      O        0.46550    0.87710    0.20350    1.000
    O26      O        0.61280    0.99130    0.30900    1.000
    O27      O        0.67410    0.04510    0.54270    1.000
    O28      O        0.85770    0.00360    0.38210    1.000
    O29      O        0.39620    0.78420    0.09310    1.000
    O30      O        0.31350    0.81230    0.35340    1.000
    Zn6      Zn       0.05949    0.54696    0.28111    1.000
    P11      P        0.07510    0.68428    0.23650    1.000
    H11      H        0.99480    0.70260    0.28070    1.000
    P12      P        0.78745    0.50285    0.43730    1.000
    H12      H        0.79150    0.53860    0.49480    1.000
    O31      O        0.03450    0.62290    0.20350    1.000
    O32      O        0.88720    0.50870    0.30900    1.000
    O33      O        0.82590    0.45490    0.54270    1.000
    O34      O        0.64230    0.49640    0.38210    1.000
    O35      O        0.10380    0.71580    0.09310    1.000
    O36      O        0.18650    0.68770    0.35340    1.000
    Zn7      Zn       0.55949    0.45304    0.21889    1.000
    P13      P        0.57510    0.31572    0.26350    1.000
    H13      H        0.49480    0.29740    0.21930    1.000
    P14      P        0.28745    0.49715    0.06270    1.000
    H14      H        0.29150    0.46140    0.00520    1.000
    O37      O        0.53450    0.37710    0.29650    1.000
    O38      O        0.38720    0.49130    0.19100    1.000
    O39      O        0.32590    0.54510    0.95730    1.000
    O40      O        0.14230    0.50360    0.11790    1.000
    O41      O        0.60380    0.28420    0.40690    1.000
    O42      O        0.68650    0.31230    0.14660    1.000
    Zn8      Zn       0.94051    0.04696    0.21889    1.000
    P15      P        0.92490    0.18428    0.26350    1.000
    H15      H        0.00520    0.20260    0.21930    1.000
    P16      P        0.21255    0.00285    0.06270    1.000
    H16      H        0.20850    0.03860    0.00520    1.000
    O43      O        0.96550    0.12290    0.29650    1.000
    O44      O        0.11280    0.00870    0.19100    1.000
    O45      O        0.17410    0.95490    0.95730    1.000
    O46      O        0.35770    0.99640    0.11790    1.000
    O47      O        0.89620    0.21580    0.40690    1.000
    O48      O        0.81350    0.18770    0.14660    1.000
    Zn9      Zn       0.75000    0.25000    0.01825    1.000
    Zn10     Zn       0.25000    0.75000    0.48175    1.000
    Zn11     Zn       0.25000    0.75000    0.98175    1.000
    Zn12     Zn       0.75000    0.25000    0.51825    1.000
