# CIF file generated by openbabel 3.1.0, see https://openbabel.org
data_I
_chemical_name_common 'image0'
_cell_length_a 13.153
_cell_length_b 13.986
_cell_length_c 21.683
_cell_angle_alpha 90
_cell_angle_beta 121.056
_cell_angle_gamma 90
_space_group_name_H-M_alt 'P 1'
_space_group_name_Hall 'P 1'
loop_
    _symmetry_equiv_pos_as_xyz
    x,y,z
loop_
    _atom_site_label
    _atom_site_type_symbol
    _atom_site_fract_x
    _atom_site_fract_y
    _atom_site_fract_z
    _atom_site_occupancy
    Mn1      Mn       0.72526    0.54571    0.72526    1.000
    Mn2      Mn       0.77625    0.70394    0.86040    1.000
    O1       O        0.59070    0.64330    0.66140    1.000
    O2       O        0.63650    0.73710    0.75500    1.000
    O3       O        0.35960    0.00230    0.72000    1.000
    O4       O        0.26810    0.07130    0.61200    1.000
    O5       O        0.30680    0.55880    0.35630    1.000
    O6       O        0.15640    0.58700    0.24830    1.000
    O7       O        0.87760    0.86720    0.22120    1.000
    O8       O        0.87160    0.88180    0.32010    1.000
    N1       N        0.93850    0.72020    0.97130    1.000
    N2       N        0.87030    0.83980    0.85810    1.000
    C1       C        0.57320    0.71370    0.68950    1.000
    C2       C        0.47050    0.77790    0.64210    1.000
    C3       C        0.44630    0.85770    0.66980    1.000
    H1       H        0.49180    0.87070    0.71880    1.000
    C4       C        0.35380    0.91880    0.62440    1.000
    C5       C        0.32490    0.00390    0.65440    1.000
    C6       C        0.28680    0.89820    0.55070    1.000
    H2       H        0.22860    0.94120    0.51990    1.000
    C7       C        0.30470    0.81620    0.52260    1.000
    C8       C        0.40000    0.75610    0.56980    1.000
    H3       H        0.41540    0.70100    0.55190    1.000
    C9       C        0.22700    0.78940    0.44480    1.000
    C10      C        0.25780    0.71750    0.41360    1.000
    H4       H        0.32970    0.68590    0.44150    1.000
    C11      C        0.18490    0.69110    0.34200    1.000
    C12      C        0.21700    0.60940    0.31250    1.000
    C13      C        0.07720    0.73980    0.29940    1.000
    H5       H        0.02970    0.72560    0.25070    1.000
    C14      C        0.04270    0.80810    0.32980    1.000
    C15      C        0.92350    0.85490    0.28660    1.000
    C16      C        0.11590    0.83380    0.40220    1.000
    H6       H        0.09090    0.88030    0.42220    1.000
    C17      C        0.83830    0.89240    0.79990    1.000
    H7       H        0.77040    0.87730    0.75640    1.000
    C18      C        0.91110    0.97410    0.80520    1.000
    H8       H        0.89030    0.01020    0.76430    1.000
    C19      C        0.00390    0.99730    0.86580    1.000
    H9       H        0.04900    0.04990    0.86820    1.000
    C20      C        0.03630    0.94480    0.92670    1.000
    C21      C        0.13610    0.96640    0.99400    1.000
    H10      H        0.18190    0.01950    0.99850    1.000
    C22      C        0.16830    0.90980    0.05460    1.000
    H11      H        0.23280    0.92770    0.09890    1.000
    C23      C        0.10310    0.82380    0.04970    1.000
    C24      C        0.13390    0.77270    0.10430    1.000
    H12      H        0.19740    0.79080    0.14900    1.000
    C25      C        0.06810    0.68360    0.09670    1.000
    H13      H        0.09020    0.64340    0.13580    1.000
    C26      C        0.96700    0.66090    0.02560    1.000
    H14      H        0.92320    0.60550    0.01840    1.000
    C27      C        0.00160    0.80180    0.98090    1.000
    C28      C        0.96770    0.86420    0.91830    1.000
    Mn3      Mn       0.27474    0.04571    0.77474    1.000
    Mn4      Mn       0.22375    0.20394    0.63960    1.000
    O9       O        0.40930    0.14330    0.83860    1.000
    O10      O        0.36350    0.23710    0.74500    1.000
    O11      O        0.64040    0.50230    0.78000    1.000
    O12      O        0.73190    0.57130    0.88800    1.000
    O13      O        0.69320    0.05880    0.14370    1.000
    O14      O        0.84360    0.08700    0.25170    1.000
    O15      O        0.12240    0.36720    0.27880    1.000
    O16      O        0.12840    0.38180    0.17990    1.000
    N3       N        0.06150    0.22020    0.52870    1.000
    N4       N        0.12970    0.33980    0.64190    1.000
    C29      C        0.42680    0.21370    0.81050    1.000
    C30      C        0.52950    0.27790    0.85790    1.000
    C31      C        0.55370    0.35770    0.83020    1.000
    H15      H        0.50820    0.37070    0.78120    1.000
    C32      C        0.64620    0.41880    0.87560    1.000
    C33      C        0.67510    0.50390    0.84560    1.000
    C34      C        0.71320    0.39820    0.94930    1.000
    H16      H        0.77140    0.44120    0.98010    1.000
    C35      C        0.69530    0.31620    0.97740    1.000
    C36      C        0.60000    0.25610    0.93020    1.000
    H17      H        0.58460    0.20100    0.94810    1.000
    C37      C        0.77300    0.28940    0.05520    1.000
    C38      C        0.74220    0.21750    0.08640    1.000
    H18      H        0.67030    0.18590    0.05850    1.000
    C39      C        0.81510    0.19110    0.15800    1.000
    C40      C        0.78300    0.10940    0.18750    1.000
    C41      C        0.92280    0.23980    0.20060    1.000
    H19      H        0.97030    0.22560    0.24930    1.000
    C42      C        0.95730    0.30810    0.17020    1.000
    C43      C        0.07650    0.35490    0.21340    1.000
    C44      C        0.88410    0.33380    0.09780    1.000
    H20      H        0.90910    0.38030    0.07780    1.000
    C45      C        0.16170    0.39240    0.70010    1.000
    H21      H        0.22960    0.37730    0.74360    1.000
    C46      C        0.08890    0.47410    0.69480    1.000
    H22      H        0.10970    0.51020    0.73570    1.000
    C47      C        0.99610    0.49730    0.63420    1.000
    H23      H        0.95100    0.54990    0.63180    1.000
    C48      C        0.96370    0.44480    0.57330    1.000
    C49      C        0.86390    0.46640    0.50600    1.000
    H24      H        0.81810    0.51950    0.50150    1.000
    C50      C        0.83170    0.40980    0.44540    1.000
    H25      H        0.76720    0.42770    0.40110    1.000
    C51      C        0.89690    0.32380    0.45030    1.000
    C52      C        0.86610    0.27270    0.39570    1.000
    H26      H        0.80260    0.29080    0.35100    1.000
    C53      C        0.93190    0.18360    0.40330    1.000
    H27      H        0.90980    0.14340    0.36420    1.000
    C54      C        0.03300    0.16090    0.47440    1.000
    H28      H        0.07680    0.10550    0.48160    1.000
    C55      C        0.99840    0.30180    0.51910    1.000
    C56      C        0.03230    0.36420    0.58170    1.000
    Mn5      Mn       0.27474    0.45429    0.27474    1.000
    Mn6      Mn       0.22375    0.29606    0.13960    1.000
    O17      O        0.40930    0.35670    0.33860    1.000
    O18      O        0.36350    0.26290    0.24500    1.000
    O19      O        0.64040    0.99770    0.28000    1.000
    O20      O        0.73190    0.92870    0.38800    1.000
    O21      O        0.69320    0.44120    0.64370    1.000
    O22      O        0.84360    0.41300    0.75170    1.000
    O23      O        0.12240    0.13280    0.77880    1.000
    O24      O        0.12840    0.11820    0.67990    1.000
    N5       N        0.06150    0.27980    0.02870    1.000
    N6       N        0.12970    0.16020    0.14190    1.000
    C57      C        0.42680    0.28630    0.31050    1.000
    C58      C        0.52950    0.22210    0.35790    1.000
    C59      C        0.55370    0.14230    0.33020    1.000
    H29      H        0.50820    0.12930    0.28120    1.000
    C60      C        0.64620    0.08120    0.37560    1.000
    C61      C        0.67510    0.99610    0.34560    1.000
    C62      C        0.71320    0.10180    0.44930    1.000
    H30      H        0.77140    0.05880    0.48010    1.000
    C63      C        0.69530    0.18380    0.47740    1.000
    C64      C        0.60000    0.24390    0.43020    1.000
    H31      H        0.58460    0.29900    0.44810    1.000
    C65      C        0.77300    0.21060    0.55520    1.000
    C66      C        0.74220    0.28250    0.58640    1.000
    H32      H        0.67030    0.31410    0.55850    1.000
    C67      C        0.81510    0.30890    0.65800    1.000
    C68      C        0.78300    0.39060    0.68750    1.000
    C69      C        0.92280    0.26020    0.70060    1.000
    H33      H        0.97030    0.27440    0.74930    1.000
    C70      C        0.95730    0.19190    0.67020    1.000
    C71      C        0.07650    0.14510    0.71340    1.000
    C72      C        0.88410    0.16620    0.59780    1.000
    H34      H        0.90910    0.11970    0.57780    1.000
    C73      C        0.16170    0.10760    0.20010    1.000
    H35      H        0.22960    0.12270    0.24360    1.000
    C74      C        0.08890    0.02590    0.19480    1.000
    H36      H        0.10970    0.98980    0.23570    1.000
    C75      C        0.99610    0.00270    0.13420    1.000
    H37      H        0.95100    0.95010    0.13180    1.000
    C76      C        0.96370    0.05520    0.07330    1.000
    C77      C        0.86390    0.03360    0.00600    1.000
    H38      H        0.81810    0.98050    0.00150    1.000
    C78      C        0.83170    0.09020    0.94540    1.000
    H39      H        0.76720    0.07230    0.90110    1.000
    C79      C        0.89690    0.17620    0.95030    1.000
    C80      C        0.86610    0.22730    0.89570    1.000
    H40      H        0.80260    0.20920    0.85100    1.000
    C81      C        0.93190    0.31640    0.90330    1.000
    H41      H        0.90980    0.35660    0.86420    1.000
    C82      C        0.03300    0.33910    0.97440    1.000
    H42      H        0.07680    0.39450    0.98160    1.000
    C83      C        0.99840    0.19820    0.01910    1.000
    C84      C        0.03230    0.13580    0.08170    1.000
    Mn7      Mn       0.72526    0.95429    0.22526    1.000
    Mn8      Mn       0.77625    0.79606    0.36040    1.000
    O25      O        0.59070    0.85670    0.16140    1.000
    O26      O        0.63650    0.76290    0.25500    1.000
    O27      O        0.35960    0.49770    0.22000    1.000
    O28      O        0.26810    0.42870    0.11200    1.000
    O29      O        0.30680    0.94120    0.85630    1.000
    O30      O        0.15640    0.91300    0.74830    1.000
    O31      O        0.87760    0.63280    0.72120    1.000
    O32      O        0.87160    0.61820    0.82010    1.000
    N7       N        0.93850    0.77980    0.47130    1.000
    N8       N        0.87030    0.66020    0.35810    1.000
    C85      C        0.57320    0.78630    0.18950    1.000
    C86      C        0.47050    0.72210    0.14210    1.000
    C87      C        0.44630    0.64230    0.16980    1.000
    H43      H        0.49180    0.62930    0.21880    1.000
    C88      C        0.35380    0.58120    0.12440    1.000
    C89      C        0.32490    0.49610    0.15440    1.000
    C90      C        0.28680    0.60180    0.05070    1.000
    H44      H        0.22860    0.55880    0.01990    1.000
    C91      C        0.30470    0.68380    0.02260    1.000
    C92      C        0.40000    0.74390    0.06980    1.000
    H45      H        0.41540    0.79900    0.05190    1.000
    C93      C        0.22700    0.71060    0.94480    1.000
    C94      C        0.25780    0.78250    0.91360    1.000
    H46      H        0.32970    0.81410    0.94150    1.000
    C95      C        0.18490    0.80890    0.84200    1.000
    C96      C        0.21700    0.89060    0.81250    1.000
    C97      C        0.07720    0.76020    0.79940    1.000
    H47      H        0.02970    0.77440    0.75070    1.000
    C98      C        0.04270    0.69190    0.82980    1.000
    C99      C        0.92350    0.64510    0.78660    1.000
    C100     C        0.11590    0.66620    0.90220    1.000
    H48      H        0.09090    0.61970    0.92220    1.000
    C101     C        0.83830    0.60760    0.29990    1.000
    H49      H        0.77040    0.62270    0.25640    1.000
    C102     C        0.91110    0.52590    0.30520    1.000
    H50      H        0.89030    0.48980    0.26430    1.000
    C103     C        0.00390    0.50270    0.36580    1.000
    H51      H        0.04900    0.45010    0.36820    1.000
    C104     C        0.03630    0.55520    0.42670    1.000
    C105     C        0.13610    0.53360    0.49400    1.000
    H52      H        0.18190    0.48050    0.49850    1.000
    C106     C        0.16830    0.59020    0.55460    1.000
    H53      H        0.23280    0.57230    0.59890    1.000
    C107     C        0.10310    0.67620    0.54970    1.000
    C108     C        0.13390    0.72730    0.60430    1.000
    H54      H        0.19740    0.70920    0.64900    1.000
    C109     C        0.06810    0.81640    0.59670    1.000
    H55      H        0.09020    0.85660    0.63580    1.000
    C110     C        0.96700    0.83910    0.52560    1.000
    H56      H        0.92320    0.89450    0.51840    1.000
    C111     C        0.00160    0.69820    0.48090    1.000
    C112     C        0.96770    0.63580    0.41830    1.000
