# CIF file generated by openbabel 3.1.0, see https://openbabel.org
data_I
_chemical_name_common 'image0'
_cell_length_a 20.505
_cell_length_b 10.3482
_cell_length_c 29.521
_cell_angle_alpha 90
_cell_angle_beta 113.518
_cell_angle_gamma 90
_space_group_name_H-M_alt 'P 1'
_space_group_name_Hall 'P 1'
loop_
    _symmetry_equiv_pos_as_xyz
    x,y,z
loop_
    _atom_site_label
    _atom_site_type_symbol
    _atom_site_fract_x
    _atom_site_fract_y
    _atom_site_fract_z
    _atom_site_occupancy
    Ni1      Ni       0.33655    0.67752    0.16392    1.000
    O1       O        0.25070    0.79490    0.14907    1.000
    O2       O        0.30320    0.98480    0.17180    1.000
    O3       O        0.15520    0.16270    0.26472    1.000
    O4       O        0.03950    0.19860    0.21910    1.000
    O5       O        0.08610    0.66780    0.90060    1.000
    O6       O        0.16890    0.81260    0.90705    1.000
    O7       O        0.40900    0.83730    0.18528    1.000
    N1       N        0.26500    0.52630    0.13960    1.000
    C1       C        0.24950    0.91240    0.15690    1.000
    C2       C        0.17800    0.97060    0.14760    1.000
    C3       C        0.17120    0.03290    0.18710    1.000
    H1       H        0.21050    0.03870    0.21710    1.000
    C4       C        0.10680    0.08690    0.18290    1.000
    C5       C        0.10010    0.15460    0.22580    1.000
    C6       C        0.04990    0.07890    0.13650    1.000
    H2       H        0.00700    0.11750    0.13240    1.000
    C7       C        0.05490    0.01760    0.09760    1.000
    H3       H        0.01550    0.01260    0.06770    1.000
    C8       C        0.11990    0.96120    0.10250    1.000
    C9       C        0.12480    0.89680    0.05880    1.000
    C10      C        0.18130    0.92790    0.04530    1.000
    H4       H        0.21740    0.98330    0.06460    1.000
    C11      C        0.18210    0.87530    0.00310    1.000
    H5       H        0.22050    0.89450    0.99510    1.000
    C12      C        0.13000    0.79580    0.97180    1.000
    C13      C        0.12890    0.75430    0.92330    1.000
    C14      C        0.07740    0.76050    0.98740    1.000
    H6       H        0.04300    0.70110    0.96900    1.000
    C15      C        0.07460    0.81190    0.02990    1.000
    H7       H        0.03780    0.78800    0.03900    1.000
    C16      C        0.27660    0.41640    0.16380    1.000
    H8       H        0.31580    0.41160    0.19390    1.000
    C17      C        0.23620    0.31170    0.14850    1.000
    H9       H        0.24680    0.23520    0.16650    1.000
    C18      C        0.17880    0.32220    0.10520    1.000
    H10      H        0.14890    0.25110    0.09390    1.000
    C19      C        0.16220    0.43380    0.07690    1.000
    H11      H        0.12270    0.44120    0.04720    1.000
    C20      C        0.21010    0.53270    0.09690    1.000
    H12      H        0.20320    0.60920    0.07910    1.000
    C21      C        0.55860    0.95420    0.17990    1.000
    H13      H        0.54310    0.87640    0.16330    1.000
    C22      C        0.59810    0.05400    0.16290    1.000
    H14      H        0.61740    0.03060    0.14030    1.000
    C23      C        0.61500    0.17500    0.22470    1.000
    H15      H        0.64690    0.23420    0.24570    1.000
    C24      C        0.57660    0.08530    0.24540    1.000
    H16      H        0.57410    0.10210    0.27560    1.000
    C25      C        0.60540    0.17250    0.17990    1.000
    H17      H        0.60360    0.24570    0.16120    1.000
    N2       N        0.54740    0.98510    0.22030    1.000
    H18      H        0.38100    0.89800    0.18600    1.000
    H19      H        0.40900    0.81700    0.15730    1.000
    C26      C        0.50850    0.09540    0.19910    1.000
    H20      H        0.46310    0.10650    0.19840    1.000
    C27      C        0.53750    0.18910    0.17890    1.000
    H21      H        0.51150    0.26290    0.16470    1.000
    H22      H        0.62480    0.23530    0.16640    1.000
    C28      C        0.64420    0.06220    0.20120    1.000
    H23      H        0.68960    0.05110    0.20180    1.000
    C29      C        0.61520    0.96850    0.22130    1.000
    H24      H        0.64120    0.89470    0.23550    1.000
    Ni2      Ni       0.83655    0.17752    0.16392    1.000
    O8       O        0.75070    0.29490    0.14907    1.000
    O9       O        0.80320    0.48480    0.17180    1.000
    O10      O        0.65520    0.66270    0.26472    1.000
    O11      O        0.53950    0.69860    0.21910    1.000
    O12      O        0.58610    0.16780    0.90060    1.000
    O13      O        0.66890    0.31260    0.90705    1.000
    O14      O        0.90900    0.33730    0.18528    1.000
    N3       N        0.76500    0.02630    0.13960    1.000
    C30      C        0.74950    0.41240    0.15690    1.000
    C31      C        0.67800    0.47060    0.14760    1.000
    C32      C        0.67120    0.53290    0.18710    1.000
    H25      H        0.71050    0.53870    0.21710    1.000
    C33      C        0.60680    0.58690    0.18290    1.000
    C34      C        0.60010    0.65460    0.22580    1.000
    C35      C        0.54990    0.57890    0.13650    1.000
    H26      H        0.50700    0.61750    0.13240    1.000
    C36      C        0.55490    0.51760    0.09760    1.000
    H27      H        0.51550    0.51260    0.06770    1.000
    C37      C        0.61990    0.46120    0.10250    1.000
    C38      C        0.62480    0.39680    0.05880    1.000
    C39      C        0.68130    0.42790    0.04530    1.000
    H28      H        0.71740    0.48330    0.06460    1.000
    C40      C        0.68210    0.37530    0.00310    1.000
    H29      H        0.72050    0.39450    0.99510    1.000
    C41      C        0.63000    0.29580    0.97180    1.000
    C42      C        0.62890    0.25430    0.92330    1.000
    C43      C        0.57740    0.26050    0.98740    1.000
    H30      H        0.54300    0.20110    0.96900    1.000
    C44      C        0.57460    0.31190    0.02990    1.000
    H31      H        0.53780    0.28800    0.03900    1.000
    C45      C        0.77660    0.91640    0.16380    1.000
    H32      H        0.81580    0.91160    0.19390    1.000
    C46      C        0.73620    0.81170    0.14850    1.000
    H33      H        0.74680    0.73520    0.16650    1.000
    C47      C        0.67880    0.82220    0.10520    1.000
    H34      H        0.64890    0.75110    0.09390    1.000
    C48      C        0.66220    0.93380    0.07690    1.000
    H35      H        0.62270    0.94120    0.04720    1.000
    C49      C        0.71010    0.03270    0.09690    1.000
    H36      H        0.70320    0.10920    0.07910    1.000
    C50      C        0.05860    0.45420    0.17990    1.000
    H37      H        0.04310    0.37640    0.16330    1.000
    C51      C        0.09810    0.55400    0.16290    1.000
    H38      H        0.11740    0.53060    0.14030    1.000
    C52      C        0.11500    0.67500    0.22470    1.000
    H39      H        0.14690    0.73420    0.24570    1.000
    C53      C        0.07660    0.58530    0.24540    1.000
    H40      H        0.07410    0.60210    0.27560    1.000
    C54      C        0.10540    0.67250    0.17990    1.000
    H41      H        0.10360    0.74570    0.16120    1.000
    N4       N        0.04740    0.48510    0.22030    1.000
    H42      H        0.88100    0.39800    0.18600    1.000
    H43      H        0.90900    0.31700    0.15730    1.000
    C55      C        0.00850    0.59540    0.19910    1.000
    H44      H        0.96310    0.60650    0.19840    1.000
    C56      C        0.03750    0.68910    0.17890    1.000
    H45      H        0.01150    0.76290    0.16470    1.000
    H46      H        0.12480    0.73530    0.16640    1.000
    C57      C        0.14420    0.56220    0.20120    1.000
    H47      H        0.18960    0.55110    0.20180    1.000
    C58      C        0.11520    0.46850    0.22130    1.000
    H48      H        0.14120    0.39470    0.23550    1.000
    Ni3      Ni       0.66345    0.67752    0.33608    1.000
    O15      O        0.74930    0.79490    0.35093    1.000
    O16      O        0.69680    0.98480    0.32820    1.000
    O17      O        0.84480    0.16270    0.23528    1.000
    O18      O        0.96050    0.19860    0.28090    1.000
    O19      O        0.91390    0.66780    0.59940    1.000
    O20      O        0.83110    0.81260    0.59295    1.000
    O21      O        0.59100    0.83730    0.31472    1.000
    N5       N        0.73500    0.52630    0.36040    1.000
    C59      C        0.75050    0.91240    0.34310    1.000
    C60      C        0.82200    0.97060    0.35240    1.000
    C61      C        0.82880    0.03290    0.31290    1.000
    H49      H        0.78950    0.03870    0.28290    1.000
    C62      C        0.89320    0.08690    0.31710    1.000
    C63      C        0.89990    0.15460    0.27420    1.000
    C64      C        0.95010    0.07890    0.36350    1.000
    H50      H        0.99300    0.11750    0.36760    1.000
    C65      C        0.94510    0.01760    0.40240    1.000
    H51      H        0.98450    0.01260    0.43230    1.000
    C66      C        0.88010    0.96120    0.39750    1.000
    C67      C        0.87520    0.89680    0.44120    1.000
    C68      C        0.81870    0.92790    0.45470    1.000
    H52      H        0.78260    0.98330    0.43540    1.000
    C69      C        0.81790    0.87530    0.49690    1.000
    H53      H        0.77950    0.89450    0.50490    1.000
    C70      C        0.87000    0.79580    0.52820    1.000
    C71      C        0.87110    0.75430    0.57670    1.000
    C72      C        0.92260    0.76050    0.51260    1.000
    H54      H        0.95700    0.70110    0.53100    1.000
    C73      C        0.92540    0.81190    0.47010    1.000
    H55      H        0.96220    0.78800    0.46100    1.000
    C74      C        0.72340    0.41640    0.33620    1.000
    H56      H        0.68420    0.41160    0.30610    1.000
    C75      C        0.76380    0.31170    0.35150    1.000
    H57      H        0.75320    0.23520    0.33350    1.000
    C76      C        0.82120    0.32220    0.39480    1.000
    H58      H        0.85110    0.25110    0.40610    1.000
    C77      C        0.83780    0.43380    0.42310    1.000
    H59      H        0.87730    0.44120    0.45280    1.000
    C78      C        0.78990    0.53270    0.40310    1.000
    H60      H        0.79680    0.60920    0.42090    1.000
    C79      C        0.44140    0.95420    0.32010    1.000
    H61      H        0.45690    0.87640    0.33670    1.000
    C80      C        0.40190    0.05400    0.33710    1.000
    H62      H        0.38260    0.03060    0.35970    1.000
    C81      C        0.38500    0.17500    0.27530    1.000
    H63      H        0.35310    0.23420    0.25430    1.000
    C82      C        0.42340    0.08530    0.25460    1.000
    H64      H        0.42590    0.10210    0.22440    1.000
    C83      C        0.39460    0.17250    0.32010    1.000
    H65      H        0.39640    0.24570    0.33880    1.000
    N6       N        0.45260    0.98510    0.27970    1.000
    H66      H        0.61900    0.89800    0.31400    1.000
    H67      H        0.59100    0.81700    0.34270    1.000
    C84      C        0.49150    0.09540    0.30090    1.000
    H68      H        0.53690    0.10650    0.30160    1.000
    C85      C        0.46250    0.18910    0.32110    1.000
    H69      H        0.48850    0.26290    0.33530    1.000
    H70      H        0.37520    0.23530    0.33360    1.000
    C86      C        0.35580    0.06220    0.29880    1.000
    H71      H        0.31040    0.05110    0.29820    1.000
    C87      C        0.38480    0.96850    0.27870    1.000
    H72      H        0.35880    0.89470    0.26450    1.000
    Ni4      Ni       0.16345    0.17752    0.33608    1.000
    O22      O        0.24930    0.29490    0.35093    1.000
    O23      O        0.19680    0.48480    0.32820    1.000
    O24      O        0.34480    0.66270    0.23528    1.000
    O25      O        0.46050    0.69860    0.28090    1.000
    O26      O        0.41390    0.16780    0.59940    1.000
    O27      O        0.33110    0.31260    0.59295    1.000
    O28      O        0.09100    0.33730    0.31472    1.000
    N7       N        0.23500    0.02630    0.36040    1.000
    C88      C        0.25050    0.41240    0.34310    1.000
    C89      C        0.32200    0.47060    0.35240    1.000
    C90      C        0.32880    0.53290    0.31290    1.000
    H73      H        0.28950    0.53870    0.28290    1.000
    C91      C        0.39320    0.58690    0.31710    1.000
    C92      C        0.39990    0.65460    0.27420    1.000
    C93      C        0.45010    0.57890    0.36350    1.000
    H74      H        0.49300    0.61750    0.36760    1.000
    C94      C        0.44510    0.51760    0.40240    1.000
    H75      H        0.48450    0.51260    0.43230    1.000
    C95      C        0.38010    0.46120    0.39750    1.000
    C96      C        0.37520    0.39680    0.44120    1.000
    C97      C        0.31870    0.42790    0.45470    1.000
    H76      H        0.28260    0.48330    0.43540    1.000
    C98      C        0.31790    0.37530    0.49690    1.000
    H77      H        0.27950    0.39450    0.50490    1.000
    C99      C        0.37000    0.29580    0.52820    1.000
    C100     C        0.37110    0.25430    0.57670    1.000
    C101     C        0.42260    0.26050    0.51260    1.000
    H78      H        0.45700    0.20110    0.53100    1.000
    C102     C        0.42540    0.31190    0.47010    1.000
    H79      H        0.46220    0.28800    0.46100    1.000
    C103     C        0.22340    0.91640    0.33620    1.000
    H80      H        0.18420    0.91160    0.30610    1.000
    C104     C        0.26380    0.81170    0.35150    1.000
    H81      H        0.25320    0.73520    0.33350    1.000
    C105     C        0.32120    0.82220    0.39480    1.000
    H82      H        0.35110    0.75110    0.40610    1.000
    C106     C        0.33780    0.93380    0.42310    1.000
    H83      H        0.37730    0.94120    0.45280    1.000
    C107     C        0.28990    0.03270    0.40310    1.000
    H84      H        0.29680    0.10920    0.42090    1.000
    C108     C        0.94140    0.45420    0.32010    1.000
    H85      H        0.95690    0.37640    0.33670    1.000
    C109     C        0.90190    0.55400    0.33710    1.000
    H86      H        0.88260    0.53060    0.35970    1.000
    C110     C        0.88500    0.67500    0.27530    1.000
    H87      H        0.85310    0.73420    0.25430    1.000
    C111     C        0.92340    0.58530    0.25460    1.000
    H88      H        0.92590    0.60210    0.22440    1.000
    C112     C        0.89460    0.67250    0.32010    1.000
    H89      H        0.89640    0.74570    0.33880    1.000
    N8       N        0.95260    0.48510    0.27970    1.000
    H90      H        0.11900    0.39800    0.31400    1.000
    H91      H        0.09100    0.31700    0.34270    1.000
    C113     C        0.99150    0.59540    0.30090    1.000
    H92      H        0.03690    0.60650    0.30160    1.000
    C114     C        0.96250    0.68910    0.32110    1.000
    H93      H        0.98850    0.76290    0.33530    1.000
    H94      H        0.87520    0.73530    0.33360    1.000
    C115     C        0.85580    0.56220    0.29880    1.000
    H95      H        0.81040    0.55110    0.29820    1.000
    C116     C        0.88480    0.46850    0.27870    1.000
    H96      H        0.85880    0.39470    0.26450    1.000
    Ni5      Ni       0.66345    0.32248    0.83608    1.000
    O29      O        0.74930    0.20510    0.85093    1.000
    O30      O        0.69680    0.01520    0.82820    1.000
    O31      O        0.84480    0.83730    0.73528    1.000
    O32      O        0.96050    0.80140    0.78090    1.000
    O33      O        0.91390    0.33220    0.09940    1.000
    O34      O        0.83110    0.18740    0.09295    1.000
    O35      O        0.59100    0.16270    0.81472    1.000
    N9       N        0.73500    0.47370    0.86040    1.000
    C117     C        0.75050    0.08760    0.84310    1.000
    C118     C        0.82200    0.02940    0.85240    1.000
    C119     C        0.82880    0.96710    0.81290    1.000
    H97      H        0.78950    0.96130    0.78290    1.000
    C120     C        0.89320    0.91310    0.81710    1.000
    C121     C        0.89990    0.84540    0.77420    1.000
    C122     C        0.95010    0.92110    0.86350    1.000
    H98      H        0.99300    0.88250    0.86760    1.000
    C123     C        0.94510    0.98240    0.90240    1.000
    H99      H        0.98450    0.98740    0.93230    1.000
    C124     C        0.88010    0.03880    0.89750    1.000
    C125     C        0.87520    0.10320    0.94120    1.000
    C126     C        0.81870    0.07210    0.95470    1.000
    H100     H        0.78260    0.01670    0.93540    1.000
    C127     C        0.81790    0.12470    0.99690    1.000
    H101     H        0.77950    0.10550    0.00490    1.000
    C128     C        0.87000    0.20420    0.02820    1.000
    C129     C        0.87110    0.24570    0.07670    1.000
    C130     C        0.92260    0.23950    0.01260    1.000
    H102     H        0.95700    0.29890    0.03100    1.000
    C131     C        0.92540    0.18810    0.97010    1.000
    H103     H        0.96220    0.21200    0.96100    1.000
    C132     C        0.72340    0.58360    0.83620    1.000
    H104     H        0.68420    0.58840    0.80610    1.000
    C133     C        0.76380    0.68830    0.85150    1.000
    H105     H        0.75320    0.76480    0.83350    1.000
    C134     C        0.82120    0.67780    0.89480    1.000
    H106     H        0.85110    0.74890    0.90610    1.000
    C135     C        0.83780    0.56620    0.92310    1.000
    H107     H        0.87730    0.55880    0.95280    1.000
    C136     C        0.78990    0.46730    0.90310    1.000
    H108     H        0.79680    0.39080    0.92090    1.000
    C137     C        0.44140    0.04580    0.82010    1.000
    H109     H        0.45690    0.12360    0.83670    1.000
    C138     C        0.40190    0.94600    0.83710    1.000
    H110     H        0.38260    0.96940    0.85970    1.000
    C139     C        0.38500    0.82500    0.77530    1.000
    H111     H        0.35310    0.76580    0.75430    1.000
    C140     C        0.42340    0.91470    0.75460    1.000
    H112     H        0.42590    0.89790    0.72440    1.000
    C141     C        0.39460    0.82750    0.82010    1.000
    H113     H        0.39640    0.75430    0.83880    1.000
    N10      N        0.45260    0.01490    0.77970    1.000
    H114     H        0.61900    0.10200    0.81400    1.000
    H115     H        0.59100    0.18300    0.84270    1.000
    C142     C        0.49150    0.90460    0.80090    1.000
    H116     H        0.53690    0.89350    0.80160    1.000
    C143     C        0.46250    0.81090    0.82110    1.000
    H117     H        0.48850    0.73710    0.83530    1.000
    H118     H        0.37520    0.76470    0.83360    1.000
    C144     C        0.35580    0.93780    0.79880    1.000
    H119     H        0.31040    0.94890    0.79820    1.000
    C145     C        0.38480    0.03150    0.77870    1.000
    H120     H        0.35880    0.10530    0.76450    1.000
    Ni6      Ni       0.16345    0.82248    0.83608    1.000
    O36      O        0.24930    0.70510    0.85093    1.000
    O37      O        0.19680    0.51520    0.82820    1.000
    O38      O        0.34480    0.33730    0.73528    1.000
    O39      O        0.46050    0.30140    0.78090    1.000
    O40      O        0.41390    0.83220    0.09940    1.000
    O41      O        0.33110    0.68740    0.09295    1.000
    O42      O        0.09100    0.66270    0.81472    1.000
    N11      N        0.23500    0.97370    0.86040    1.000
    C146     C        0.25050    0.58760    0.84310    1.000
    C147     C        0.32200    0.52940    0.85240    1.000
    C148     C        0.32880    0.46710    0.81290    1.000
    H121     H        0.28950    0.46130    0.78290    1.000
    C149     C        0.39320    0.41310    0.81710    1.000
    C150     C        0.39990    0.34540    0.77420    1.000
    C151     C        0.45010    0.42110    0.86350    1.000
    H122     H        0.49300    0.38250    0.86760    1.000
    C152     C        0.44510    0.48240    0.90240    1.000
    H123     H        0.48450    0.48740    0.93230    1.000
    C153     C        0.38010    0.53880    0.89750    1.000
    C154     C        0.37520    0.60320    0.94120    1.000
    C155     C        0.31870    0.57210    0.95470    1.000
    H124     H        0.28260    0.51670    0.93540    1.000
    C156     C        0.31790    0.62470    0.99690    1.000
    H125     H        0.27950    0.60550    0.00490    1.000
    C157     C        0.37000    0.70420    0.02820    1.000
    C158     C        0.37110    0.74570    0.07670    1.000
    C159     C        0.42260    0.73950    0.01260    1.000
    H126     H        0.45700    0.79890    0.03100    1.000
    C160     C        0.42540    0.68810    0.97010    1.000
    H127     H        0.46220    0.71200    0.96100    1.000
    C161     C        0.22340    0.08360    0.83620    1.000
    H128     H        0.18420    0.08840    0.80610    1.000
    C162     C        0.26380    0.18830    0.85150    1.000
    H129     H        0.25320    0.26480    0.83350    1.000
    C163     C        0.32120    0.17780    0.89480    1.000
    H130     H        0.35110    0.24890    0.90610    1.000
    C164     C        0.33780    0.06620    0.92310    1.000
    H131     H        0.37730    0.05880    0.95280    1.000
    C165     C        0.28990    0.96730    0.90310    1.000
    H132     H        0.29680    0.89080    0.92090    1.000
    C166     C        0.94140    0.54580    0.82010    1.000
    H133     H        0.95690    0.62360    0.83670    1.000
    C167     C        0.90190    0.44600    0.83710    1.000
    H134     H        0.88260    0.46940    0.85970    1.000
    C168     C        0.88500    0.32500    0.77530    1.000
    H135     H        0.85310    0.26580    0.75430    1.000
    C169     C        0.92340    0.41470    0.75460    1.000
    H136     H        0.92590    0.39790    0.72440    1.000
    C170     C        0.89460    0.32750    0.82010    1.000
    H137     H        0.89640    0.25430    0.83880    1.000
    N12      N        0.95260    0.51490    0.77970    1.000
    H138     H        0.11900    0.60200    0.81400    1.000
    H139     H        0.09100    0.68300    0.84270    1.000
    C171     C        0.99150    0.40460    0.80090    1.000
    H140     H        0.03690    0.39350    0.80160    1.000
    C172     C        0.96250    0.31090    0.82110    1.000
    H141     H        0.98850    0.23710    0.83530    1.000
    H142     H        0.87520    0.26470    0.83360    1.000
    C173     C        0.85580    0.43780    0.79880    1.000
    H143     H        0.81040    0.44890    0.79820    1.000
    C174     C        0.88480    0.53150    0.77870    1.000
    H144     H        0.85880    0.60530    0.76450    1.000
    Ni7      Ni       0.33655    0.32248    0.66392    1.000
    O43      O        0.25070    0.20510    0.64907    1.000
    O44      O        0.30320    0.01520    0.67180    1.000
    O45      O        0.15520    0.83730    0.76472    1.000
    O46      O        0.03950    0.80140    0.71910    1.000
    O47      O        0.08610    0.33220    0.40060    1.000
    O48      O        0.16890    0.18740    0.40705    1.000
    O49      O        0.40900    0.16270    0.68528    1.000
    N13      N        0.26500    0.47370    0.63960    1.000
    C175     C        0.24950    0.08760    0.65690    1.000
    C176     C        0.17800    0.02940    0.64760    1.000
    C177     C        0.17120    0.96710    0.68710    1.000
    H145     H        0.21050    0.96130    0.71710    1.000
    C178     C        0.10680    0.91310    0.68290    1.000
    C179     C        0.10010    0.84540    0.72580    1.000
    C180     C        0.04990    0.92110    0.63650    1.000
    H146     H        0.00700    0.88250    0.63240    1.000
    C181     C        0.05490    0.98240    0.59760    1.000
    H147     H        0.01550    0.98740    0.56770    1.000
    C182     C        0.11990    0.03880    0.60250    1.000
    C183     C        0.12480    0.10320    0.55880    1.000
    C184     C        0.18130    0.07210    0.54530    1.000
    H148     H        0.21740    0.01670    0.56460    1.000
    C185     C        0.18210    0.12470    0.50310    1.000
    H149     H        0.22050    0.10550    0.49510    1.000
    C186     C        0.13000    0.20420    0.47180    1.000
    C187     C        0.12890    0.24570    0.42330    1.000
    C188     C        0.07740    0.23950    0.48740    1.000
    H150     H        0.04300    0.29890    0.46900    1.000
    C189     C        0.07460    0.18810    0.52990    1.000
    H151     H        0.03780    0.21200    0.53900    1.000
    C190     C        0.27660    0.58360    0.66380    1.000
    H152     H        0.31580    0.58840    0.69390    1.000
    C191     C        0.23620    0.68830    0.64850    1.000
    H153     H        0.24680    0.76480    0.66650    1.000
    C192     C        0.17880    0.67780    0.60520    1.000
    H154     H        0.14890    0.74890    0.59390    1.000
    C193     C        0.16220    0.56620    0.57690    1.000
    H155     H        0.12270    0.55880    0.54720    1.000
    C194     C        0.21010    0.46730    0.59690    1.000
    H156     H        0.20320    0.39080    0.57910    1.000
    C195     C        0.55860    0.04580    0.67990    1.000
    H157     H        0.54310    0.12360    0.66330    1.000
    C196     C        0.59810    0.94600    0.66290    1.000
    H158     H        0.61740    0.96940    0.64030    1.000
    C197     C        0.61500    0.82500    0.72470    1.000
    H159     H        0.64690    0.76580    0.74570    1.000
    C198     C        0.57660    0.91470    0.74540    1.000
    H160     H        0.57410    0.89790    0.77560    1.000
    C199     C        0.60540    0.82750    0.67990    1.000
    H161     H        0.60360    0.75430    0.66120    1.000
    N14      N        0.54740    0.01490    0.72030    1.000
    H162     H        0.38100    0.10200    0.68600    1.000
    H163     H        0.40900    0.18300    0.65730    1.000
    C200     C        0.50850    0.90460    0.69910    1.000
    H164     H        0.46310    0.89350    0.69840    1.000
    C201     C        0.53750    0.81090    0.67890    1.000
    H165     H        0.51150    0.73710    0.66470    1.000
    H166     H        0.62480    0.76470    0.66640    1.000
    C202     C        0.64420    0.93780    0.70120    1.000
    H167     H        0.68960    0.94890    0.70180    1.000
    C203     C        0.61520    0.03150    0.72130    1.000
    H168     H        0.64120    0.10530    0.73550    1.000
    Ni8      Ni       0.83655    0.82248    0.66392    1.000
    O50      O        0.75070    0.70510    0.64907    1.000
    O51      O        0.80320    0.51520    0.67180    1.000
    O52      O        0.65520    0.33730    0.76472    1.000
    O53      O        0.53950    0.30140    0.71910    1.000
    O54      O        0.58610    0.83220    0.40060    1.000
    O55      O        0.66890    0.68740    0.40705    1.000
    O56      O        0.90900    0.66270    0.68528    1.000
    N15      N        0.76500    0.97370    0.63960    1.000
    C204     C        0.74950    0.58760    0.65690    1.000
    C205     C        0.67800    0.52940    0.64760    1.000
    C206     C        0.67120    0.46710    0.68710    1.000
    H169     H        0.71050    0.46130    0.71710    1.000
    C207     C        0.60680    0.41310    0.68290    1.000
    C208     C        0.60010    0.34540    0.72580    1.000
    C209     C        0.54990    0.42110    0.63650    1.000
    H170     H        0.50700    0.38250    0.63240    1.000
    C210     C        0.55490    0.48240    0.59760    1.000
    H171     H        0.51550    0.48740    0.56770    1.000
    C211     C        0.61990    0.53880    0.60250    1.000
    C212     C        0.62480    0.60320    0.55880    1.000
    C213     C        0.68130    0.57210    0.54530    1.000
    H172     H        0.71740    0.51670    0.56460    1.000
    C214     C        0.68210    0.62470    0.50310    1.000
    H173     H        0.72050    0.60550    0.49510    1.000
    C215     C        0.63000    0.70420    0.47180    1.000
    C216     C        0.62890    0.74570    0.42330    1.000
    C217     C        0.57740    0.73950    0.48740    1.000
    H174     H        0.54300    0.79890    0.46900    1.000
    C218     C        0.57460    0.68810    0.52990    1.000
    H175     H        0.53780    0.71200    0.53900    1.000
    C219     C        0.77660    0.08360    0.66380    1.000
    H176     H        0.81580    0.08840    0.69390    1.000
    C220     C        0.73620    0.18830    0.64850    1.000
    H177     H        0.74680    0.26480    0.66650    1.000
    C221     C        0.67880    0.17780    0.60520    1.000
    H178     H        0.64890    0.24890    0.59390    1.000
    C222     C        0.66220    0.06620    0.57690    1.000
    H179     H        0.62270    0.05880    0.54720    1.000
    C223     C        0.71010    0.96730    0.59690    1.000
    H180     H        0.70320    0.89080    0.57910    1.000
    C224     C        0.05860    0.54580    0.67990    1.000
    H181     H        0.04310    0.62360    0.66330    1.000
    C225     C        0.09810    0.44600    0.66290    1.000
    H182     H        0.11740    0.46940    0.64030    1.000
    C226     C        0.11500    0.32500    0.72470    1.000
    H183     H        0.14690    0.26580    0.74570    1.000
    C227     C        0.07660    0.41470    0.74540    1.000
    H184     H        0.07410    0.39790    0.77560    1.000
    C228     C        0.10540    0.32750    0.67990    1.000
    H185     H        0.10360    0.25430    0.66120    1.000
    N16      N        0.04740    0.51490    0.72030    1.000
    H186     H        0.88100    0.60200    0.68600    1.000
    H187     H        0.90900    0.68300    0.65730    1.000
    C229     C        0.00850    0.40460    0.69910    1.000
    H188     H        0.96310    0.39350    0.69840    1.000
    C230     C        0.03750    0.31090    0.67890    1.000
    H189     H        0.01150    0.23710    0.66470    1.000
    H190     H        0.12480    0.26470    0.66640    1.000
    C231     C        0.14420    0.43780    0.70120    1.000
    H191     H        0.18960    0.44890    0.70180    1.000
    C232     C        0.11520    0.53150    0.72130    1.000
    H192     H        0.14120    0.60530    0.73550    1.000
    Ni9      Ni       0.50000    0.84253    0.25000    1.000
    Ni10     Ni       0.00000    0.34253    0.25000    1.000
    Ni11     Ni       0.50000    0.15747    0.75000    1.000
    Ni12     Ni       0.00000    0.65747    0.75000    1.000
