# CIF file generated by openbabel 3.1.0, see https://openbabel.org
data_I
_chemical_name_common 'image0'
_cell_length_a 11.5178
_cell_length_b 12.4126
_cell_length_c 13.1708
_cell_angle_alpha 94.261
_cell_angle_beta 92.978
_cell_angle_gamma 93.134
_space_group_name_H-M_alt 'P 1'
_space_group_name_Hall 'P 1'
loop_
    _symmetry_equiv_pos_as_xyz
    x,y,z
loop_
    _atom_site_label
    _atom_site_type_symbol
    _atom_site_fract_x
    _atom_site_fract_y
    _atom_site_fract_z
    _atom_site_occupancy
    Cd1      Cd       0.72349    0.04160    0.47506    1.000
    Cd2      Cd       0.12088    0.46578    0.72660    1.000
    Cd3      Cd       0.47107    0.68328    0.12148    1.000
    C1       C        0.43690    0.45280    0.34000    1.000
    N1       N        0.85210    0.17770    0.55360    1.000
    O1       O        0.21280    0.50710    0.57790    1.000
    N2       N        0.99320    0.32550    0.64710    1.000
    O2       O        0.28170    0.37500    0.65900    1.000
    O3       O        0.63160    0.17340    0.35150    1.000
    C2       C        0.27930    0.43140    0.58360    1.000
    O4       O        0.52170    0.77580    0.96760    1.000
    O5       O        0.57730    0.15350    0.50580    1.000
    O6       O        0.77510    0.90910    0.56990    1.000
    C3       C        0.49890    0.29740    0.42160    1.000
    O7       O        0.51460    0.50930    0.18640    1.000
    C4       C        0.50270    0.36350    0.34190    1.000
    H1       H        0.55050    0.34760    0.28870    1.000
    C5       C        0.57290    0.20200    0.42500    1.000
    C6       C        0.42700    0.32170    0.50040    1.000
    H2       H        0.42500    0.27830    0.55490    1.000
    O8       O        0.38930    0.61150    0.26160    1.000
    C7       C        0.35860    0.40880    0.49910    1.000
    C8       C        0.94760    0.60570    0.76300    1.000
    C9       C        0.60800    0.71970    0.95720    1.000
    O9       O        0.63030    0.64820    0.01800    1.000
    O10      O        0.97360    0.54370    0.83170    1.000
    C10      C        0.44690    0.52910    0.25750    1.000
    C11      C        0.68620    0.73610    0.87240    1.000
    C12      C        0.82750    0.75630    0.70790    1.000
    H3       H        0.87290    0.76150    0.65190    1.000
    C13      C        0.36370    0.47490    0.41890    1.000
    H4       H        0.31800    0.53430    0.41780    1.000
    C14      C        0.66750    0.81460    0.80410    1.000
    H5       H        0.60720    0.86070    0.81330    1.000
    C15      C        0.77860    0.66930    0.85740    1.000
    H6       H        0.79250    0.61670    0.90260    1.000
    O11      O        0.00230    0.60720    0.68490    1.000
    O12      O        0.64110    0.97660    0.66650    1.000
    C16      C        0.84950    0.67970    0.77720    1.000
    C17      C        0.71570    0.90990    0.64680    1.000
    C18      C        0.73790    0.82490    0.72230    1.000
    C19      C        0.96880    0.13660    0.57000    1.000
    H7       H        0.00020    0.11700    0.50470    1.000
    H8       H        0.96300    0.07220    0.60730    1.000
    C20      C        0.81070    0.21190    0.65490    1.000
    H9       H        0.80840    0.15090    0.69690    1.000
    H10      H        0.73240    0.23640    0.64710    1.000
    C21      C        0.89140    0.30270    0.70670    1.000
    H11      H        0.84870    0.36770    0.71590    1.000
    H12      H        0.91760    0.28300    0.77360    1.000
    C22      C        0.95100    0.35820    0.54830    1.000
    H13      H        0.01630    0.36850    0.50570    1.000
    H14      H        0.91470    0.42660    0.55790    1.000
    C23      C        0.86260    0.27300    0.49450    1.000
    H15      H        0.78730    0.30370    0.48680    1.000
    H16      H        0.88750    0.25170    0.42710    1.000
    C24      C        0.05120    0.22310    0.63030    1.000
    H17      H        0.07500    0.19740    0.69560    1.000
    H18      H        0.12040    0.23550    0.59290    1.000
    Cd4      Cd       0.27651    0.95840    0.52494    1.000
    Cd5      Cd       0.87912    0.53422    0.27340    1.000
    Cd6      Cd       0.52893    0.31672    0.87852    1.000
    C25      C        0.56310    0.54720    0.66000    1.000
    N3       N        0.14790    0.82230    0.44640    1.000
    O13      O        0.78720    0.49290    0.42210    1.000
    N4       N        0.00680    0.67450    0.35290    1.000
    O14      O        0.71830    0.62500    0.34100    1.000
    O15      O        0.36840    0.82660    0.64850    1.000
    C26      C        0.72070    0.56860    0.41640    1.000
    O16      O        0.47830    0.22420    0.03240    1.000
    O17      O        0.42270    0.84650    0.49420    1.000
    O18      O        0.22490    0.09090    0.43010    1.000
    C27      C        0.50110    0.70260    0.57840    1.000
    O19      O        0.48540    0.49070    0.81360    1.000
    C28      C        0.49730    0.63650    0.65810    1.000
    H19      H        0.44950    0.65240    0.71130    1.000
    C29      C        0.42710    0.79800    0.57500    1.000
    C30      C        0.57300    0.67830    0.49960    1.000
    H20      H        0.57500    0.72170    0.44510    1.000
    O20      O        0.61070    0.38850    0.73840    1.000
    C31      C        0.64140    0.59120    0.50090    1.000
    C32      C        0.05240    0.39430    0.23700    1.000
    C33      C        0.39200    0.28030    0.04280    1.000
    O21      O        0.36970    0.35180    0.98200    1.000
    O22      O        0.02640    0.45630    0.16830    1.000
    C34      C        0.55310    0.47090    0.74250    1.000
    C35      C        0.31380    0.26390    0.12760    1.000
    C36      C        0.17250    0.24370    0.29210    1.000
    H21      H        0.12710    0.23850    0.34810    1.000
    C37      C        0.63630    0.52510    0.58110    1.000
    H22      H        0.68200    0.46570    0.58220    1.000
    C38      C        0.33250    0.18540    0.19590    1.000
    H23      H        0.39280    0.13930    0.18670    1.000
    C39      C        0.22140    0.33070    0.14260    1.000
    H24      H        0.20750    0.38330    0.09740    1.000
    O23      O        0.99770    0.39280    0.31510    1.000
    O24      O        0.35890    0.02340    0.33350    1.000
    C40      C        0.15050    0.32030    0.22280    1.000
    C41      C        0.28430    0.09010    0.35320    1.000
    C42      C        0.26210    0.17510    0.27770    1.000
    C43      C        0.03120    0.86340    0.43000    1.000
    H25      H        0.99980    0.88300    0.49530    1.000
    H26      H        0.03700    0.92780    0.39270    1.000
    C44      C        0.18930    0.78810    0.34510    1.000
    H27      H        0.19160    0.84910    0.30310    1.000
    H28      H        0.26760    0.76360    0.35290    1.000
    C45      C        0.10860    0.69730    0.29330    1.000
    H29      H        0.15130    0.63230    0.28410    1.000
    H30      H        0.08240    0.71700    0.22640    1.000
    C46      C        0.04900    0.64180    0.45170    1.000
    H31      H        0.98370    0.63150    0.49430    1.000
    H32      H        0.08530    0.57340    0.44210    1.000
    C47      C        0.13740    0.72700    0.50550    1.000
    H33      H        0.21270    0.69630    0.51320    1.000
    H34      H        0.11250    0.74830    0.57290    1.000
    C48      C        0.94880    0.77690    0.36970    1.000
    H35      H        0.92500    0.80260    0.30440    1.000
    H36      H        0.87960    0.76450    0.40710    1.000
