# CIF file generated by openbabel 3.1.0, see https://openbabel.org
data_I
_chemical_name_common 'image0'
_cell_length_a 32.989
_cell_length_b 39.08
_cell_length_c 27.682
_cell_angle_alpha 90
_cell_angle_beta 124.04
_cell_angle_gamma 90
_space_group_name_H-M_alt 'P 1'
_space_group_name_Hall 'P 1'
loop_
    _symmetry_equiv_pos_as_xyz
    x,y,z
loop_
    _atom_site_label
    _atom_site_type_symbol
    _atom_site_fract_x
    _atom_site_fract_y
    _atom_site_fract_z
    _atom_site_occupancy
    Co1      Co       0.63636    0.22943    0.03348    1.000
    Co2      Co       0.72186    0.19013    0.15597    1.000
    O1       O        0.64691    0.02059    0.60812    1.000
    O2       O        0.59426    0.21486    0.05910    1.000
    O3       O        0.63654    0.18457    0.99951    1.000
    O4       O        0.69056    0.15824    0.08295    1.000
    O5       O        0.65699    0.19956    0.14660    1.000
    C1       C        0.48745    0.17535    0.18877    1.000
    O6       O        0.19323    0.24708    0.02401    1.000
    O7       O        0.21325    0.26381    0.11054    1.000
    C2       C        0.22184    0.25327    0.07740    1.000
    C3       C        0.27616    0.23677    0.11160    1.000
    C4       C        0.29129    0.22668    0.07770    1.000
    H1       H        0.27130    0.22980    0.03750    1.000
    C5       C        0.33747    0.21146    0.10339    1.000
    H2       H        0.34820    0.20540    0.07980    1.000
    C6       C        0.36720    0.20515    0.16198    1.000
    C7       C        0.35135    0.21571    0.19750    1.000
    H3       H        0.37090    0.21230    0.23760    1.000
    C8       C        0.30579    0.23141    0.17140    1.000
    H4       H        0.29500    0.23840    0.19440    1.000
    C9       C        0.41418    0.18709    0.18665    1.000
    C10      C        0.42907    0.16291    0.23078    1.000
    H5       H        0.40930    0.15880    0.24430    1.000
    C11      C        0.50121    0.15122    0.23295    1.000
    H6       H        0.53010    0.13900    0.24810    1.000
    C12      C        0.47243    0.14499    0.25495    1.000
    C13      C        0.44350    0.19297    0.16624    1.000
    H7       H        0.43370    0.20900    0.13690    1.000
    C14      C        0.48894    0.11948    0.30236    1.000
    C15      C        0.63914    0.03077    0.91030    1.000
    C16      C        0.63206    0.03055    0.85561    1.000
    H8       H        0.63000    0.05110    0.83750    1.000
    C17      C        0.51816    0.18231    0.16664    1.000
    C18      C        0.51975    0.07289    0.39374    1.000
    C19      C        0.53585    0.04720    0.44210    1.000
    C20      C        0.49882    0.19025    0.11024    1.000
    H9       H        0.46500    0.19110    0.08390    1.000
    C21      C        0.62257    0.12306    0.93714    1.000
    H10      H        0.60380    0.14180    0.91520    1.000
    C22      C        0.61835    0.09341    0.91090    1.000
    H11      H        0.59660    0.09220    0.87060    1.000
    C23      C        0.64455    0.06425    0.94019    1.000
    C24      C        0.68297    0.09768    0.02830    1.000
    H12      H        0.70590    0.09940    0.06830    1.000
    O8       O        0.50340    0.03310    0.44610    1.000
    O9       O        0.58170    0.04250    0.47600    1.000
    C25      C        0.45450    0.09940    0.30480    1.000
    H13      H        0.42140    0.10090    0.27500    1.000
    C26      C        0.46940    0.07730    0.35150    1.000
    H14      H        0.44640    0.06560    0.35460    1.000
    C27      C        0.53800    0.11525    0.34910    1.000
    H15      H        0.56140    0.12930    0.35050    1.000
    C28      C        0.55340    0.09133    0.39300    1.000
    H16      H        0.58660    0.08820    0.42140    1.000
    C29      C        0.62278    0.99365    0.77008    1.000
    C30      C        0.65292    0.97217    0.76342    1.000
    H17      H        0.67540    0.95820    0.79400    1.000
    C31      C        0.64943    0.97165    0.71101    1.000
    H18      H        0.66960    0.95730    0.70660    1.000
    C32      C        0.61581    0.99260    0.66525    1.000
    C33      C        0.58567    0.01407    0.67191    1.000
    H19      H        0.56320    0.02810    0.64130    1.000
    C34      C        0.58915    0.01460    0.72432    1.000
    H20      H        0.56900    0.02900    0.72880    1.000
    C35      C        0.65522    0.12613    0.99766    1.000
    C36      C        0.58010    0.19598    0.13010    1.000
    C37      C        0.66108    0.15878    0.02941    1.000
    C38      C        0.52877    0.19703    0.09160    1.000
    H21      H        0.51490    0.20250    0.05260    1.000
    C39      C        0.56941    0.18106    0.20628    1.000
    H22      H        0.58360    0.17640    0.24550    1.000
    C40      C        0.67730    0.06697    0.00097    1.000
    H23      H        0.69520    0.04800    0.02270    1.000
    C41      C        0.59872    0.18721    0.18430    1.000
    H24      H        0.63250    0.18490    0.20940    1.000
    C42      C        0.60790    0.20515    0.10180    1.000
    C43      C        0.47160    0.88110    0.33640    1.000
    C44      C        0.48610    0.90440    0.37910    1.000
    C45      C        0.52040    0.90570    0.30870    1.000
    C46      C        0.53880    0.92860    0.35690    1.000
    H25      H        0.44870    0.86470    0.33020    1.000
    H26      H        0.47100    0.90420    0.39910    1.000
    H27      H        0.52950    0.90780    0.28250    1.000
    H28      H        0.56290    0.94440    0.36490    1.000
    O10      O        0.51250    0.95580    0.46190    1.000
    O11      O        0.42490    0.96910    0.54610    1.000
    Co3      Co       0.13636    0.72943    0.03348    1.000
    Co4      Co       0.22186    0.69013    0.15597    1.000
    O12      O        0.14691    0.52059    0.60812    1.000
    O13      O        0.09426    0.71486    0.05910    1.000
    O14      O        0.13654    0.68457    0.99951    1.000
    O15      O        0.19056    0.65824    0.08295    1.000
    O16      O        0.15699    0.69956    0.14660    1.000
    C47      C        0.98745    0.67535    0.18877    1.000
    O17      O        0.69323    0.74708    0.02401    1.000
    O18      O        0.71325    0.76381    0.11054    1.000
    C48      C        0.72184    0.75327    0.07740    1.000
    C49      C        0.77616    0.73677    0.11160    1.000
    C50      C        0.79129    0.72668    0.07770    1.000
    H29      H        0.77130    0.72980    0.03750    1.000
    C51      C        0.83747    0.71146    0.10339    1.000
    H30      H        0.84820    0.70540    0.07980    1.000
    C52      C        0.86720    0.70515    0.16198    1.000
    C53      C        0.85135    0.71571    0.19750    1.000
    H31      H        0.87090    0.71230    0.23760    1.000
    C54      C        0.80579    0.73141    0.17140    1.000
    H32      H        0.79500    0.73840    0.19440    1.000
    C55      C        0.91418    0.68709    0.18665    1.000
    C56      C        0.92907    0.66291    0.23078    1.000
    H33      H        0.90930    0.65880    0.24430    1.000
    C57      C        0.00121    0.65122    0.23295    1.000
    H34      H        0.03010    0.63900    0.24810    1.000
    C58      C        0.97243    0.64499    0.25495    1.000
    C59      C        0.94350    0.69297    0.16624    1.000
    H35      H        0.93370    0.70900    0.13690    1.000
    C60      C        0.98894    0.61948    0.30236    1.000
    C61      C        0.13914    0.53077    0.91030    1.000
    C62      C        0.13206    0.53055    0.85561    1.000
    H36      H        0.13000    0.55110    0.83750    1.000
    C63      C        0.01816    0.68231    0.16664    1.000
    C64      C        0.01975    0.57289    0.39374    1.000
    C65      C        0.03585    0.54720    0.44210    1.000
    C66      C        0.99882    0.69025    0.11024    1.000
    H37      H        0.96500    0.69110    0.08390    1.000
    C67      C        0.12257    0.62306    0.93714    1.000
    H38      H        0.10380    0.64180    0.91520    1.000
    C68      C        0.11835    0.59341    0.91090    1.000
    H39      H        0.09660    0.59220    0.87060    1.000
    C69      C        0.14455    0.56425    0.94019    1.000
    C70      C        0.18297    0.59768    0.02830    1.000
    H40      H        0.20590    0.59940    0.06830    1.000
    O19      O        0.00340    0.53310    0.44610    1.000
    O20      O        0.08170    0.54250    0.47600    1.000
    C71      C        0.95450    0.59940    0.30480    1.000
    H41      H        0.92140    0.60090    0.27500    1.000
    C72      C        0.96940    0.57730    0.35150    1.000
    H42      H        0.94640    0.56560    0.35460    1.000
    C73      C        0.03800    0.61525    0.34910    1.000
    H43      H        0.06140    0.62930    0.35050    1.000
    C74      C        0.05340    0.59133    0.39300    1.000
    H44      H        0.08660    0.58820    0.42140    1.000
    C75      C        0.12278    0.49365    0.77008    1.000
    C76      C        0.15292    0.47217    0.76342    1.000
    H45      H        0.17540    0.45820    0.79400    1.000
    C77      C        0.14943    0.47165    0.71101    1.000
    H46      H        0.16960    0.45730    0.70660    1.000
    C78      C        0.11581    0.49260    0.66525    1.000
    C79      C        0.08567    0.51407    0.67191    1.000
    H47      H        0.06320    0.52810    0.64130    1.000
    C80      C        0.08915    0.51460    0.72432    1.000
    H48      H        0.06900    0.52900    0.72880    1.000
    C81      C        0.15522    0.62613    0.99766    1.000
    C82      C        0.08010    0.69598    0.13010    1.000
    C83      C        0.16108    0.65878    0.02941    1.000
    C84      C        0.02877    0.69703    0.09160    1.000
    H49      H        0.01490    0.70250    0.05260    1.000
    C85      C        0.06941    0.68106    0.20628    1.000
    H50      H        0.08360    0.67640    0.24550    1.000
    C86      C        0.17730    0.56697    0.00097    1.000
    H51      H        0.19520    0.54800    0.02270    1.000
    C87      C        0.09872    0.68721    0.18430    1.000
    H52      H        0.13250    0.68490    0.20940    1.000
    C88      C        0.10790    0.70515    0.10180    1.000
    C89      C        0.97160    0.38110    0.33640    1.000
    C90      C        0.98610    0.40440    0.37910    1.000
    C91      C        0.02040    0.40570    0.30870    1.000
    C92      C        0.03880    0.42860    0.35690    1.000
    H53      H        0.94870    0.36470    0.33020    1.000
    H54      H        0.97100    0.40420    0.39910    1.000
    H55      H        0.02950    0.40780    0.28250    1.000
    H56      H        0.06290    0.44440    0.36490    1.000
    O21      O        0.01250    0.45580    0.46190    1.000
    O22      O        0.92490    0.46910    0.54610    1.000
    Co5      Co       0.36364    0.22943    0.96652    1.000
    Co6      Co       0.27814    0.19013    0.84403    1.000
    O23      O        0.35309    0.02059    0.39188    1.000
    O24      O        0.40574    0.21486    0.94090    1.000
    O25      O        0.36346    0.18457    0.00049    1.000
    O26      O        0.30944    0.15824    0.91705    1.000
    O27      O        0.34301    0.19956    0.85340    1.000
    C93      C        0.51255    0.17535    0.81123    1.000
    O28      O        0.80677    0.24708    0.97599    1.000
    O29      O        0.78675    0.26381    0.88946    1.000
    C94      C        0.77816    0.25327    0.92260    1.000
    C95      C        0.72384    0.23677    0.88840    1.000
    C96      C        0.70871    0.22668    0.92230    1.000
    H57      H        0.72870    0.22980    0.96250    1.000
    C97      C        0.66253    0.21146    0.89661    1.000
    H58      H        0.65180    0.20540    0.92020    1.000
    C98      C        0.63280    0.20515    0.83802    1.000
    C99      C        0.64865    0.21571    0.80250    1.000
    H59      H        0.62910    0.21230    0.76240    1.000
    C100     C        0.69421    0.23141    0.82860    1.000
    H60      H        0.70500    0.23840    0.80560    1.000
    C101     C        0.58582    0.18709    0.81335    1.000
    C102     C        0.57093    0.16291    0.76922    1.000
    H61      H        0.59070    0.15880    0.75570    1.000
    C103     C        0.49879    0.15122    0.76705    1.000
    H62      H        0.46990    0.13900    0.75190    1.000
    C104     C        0.52757    0.14499    0.74505    1.000
    C105     C        0.55650    0.19297    0.83376    1.000
    H63      H        0.56630    0.20900    0.86310    1.000
    C106     C        0.51106    0.11948    0.69764    1.000
    C107     C        0.36086    0.03077    0.08970    1.000
    C108     C        0.36794    0.03055    0.14439    1.000
    H64      H        0.37000    0.05110    0.16250    1.000
    C109     C        0.48184    0.18231    0.83336    1.000
    C110     C        0.48025    0.07289    0.60626    1.000
    C111     C        0.46415    0.04720    0.55790    1.000
    C112     C        0.50118    0.19025    0.88976    1.000
    H65      H        0.53500    0.19110    0.91610    1.000
    C113     C        0.37743    0.12306    0.06286    1.000
    H66      H        0.39620    0.14180    0.08480    1.000
    C114     C        0.38165    0.09341    0.08910    1.000
    H67      H        0.40340    0.09220    0.12940    1.000
    C115     C        0.35545    0.06425    0.05981    1.000
    C116     C        0.31703    0.09768    0.97170    1.000
    H68      H        0.29410    0.09940    0.93170    1.000
    O30      O        0.49660    0.03310    0.55390    1.000
    O31      O        0.41830    0.04250    0.52400    1.000
    C117     C        0.54550    0.09940    0.69520    1.000
    H69      H        0.57860    0.10090    0.72500    1.000
    C118     C        0.53060    0.07730    0.64850    1.000
    H70      H        0.55360    0.06560    0.64540    1.000
    C119     C        0.46200    0.11525    0.65090    1.000
    H71      H        0.43860    0.12930    0.64950    1.000
    C120     C        0.44660    0.09133    0.60700    1.000
    H72      H        0.41340    0.08820    0.57860    1.000
    C121     C        0.37722    0.99365    0.22992    1.000
    C122     C        0.34708    0.97217    0.23658    1.000
    H73      H        0.32460    0.95820    0.20600    1.000
    C123     C        0.35057    0.97165    0.28899    1.000
    H74      H        0.33040    0.95730    0.29340    1.000
    C124     C        0.38419    0.99260    0.33475    1.000
    C125     C        0.41433    0.01407    0.32809    1.000
    H75      H        0.43680    0.02810    0.35870    1.000
    C126     C        0.41085    0.01460    0.27568    1.000
    H76      H        0.43100    0.02900    0.27120    1.000
    C127     C        0.34478    0.12613    0.00234    1.000
    C128     C        0.41990    0.19598    0.86990    1.000
    C129     C        0.33892    0.15878    0.97059    1.000
    C130     C        0.47123    0.19703    0.90840    1.000
    H77      H        0.48510    0.20250    0.94740    1.000
    C131     C        0.43059    0.18106    0.79372    1.000
    H78      H        0.41640    0.17640    0.75450    1.000
    C132     C        0.32270    0.06697    0.99903    1.000
    H79      H        0.30480    0.04800    0.97730    1.000
    C133     C        0.40128    0.18721    0.81570    1.000
    H80      H        0.36750    0.18490    0.79060    1.000
    C134     C        0.39210    0.20515    0.89820    1.000
    C135     C        0.52840    0.88110    0.66360    1.000
    C136     C        0.51390    0.90440    0.62090    1.000
    C137     C        0.47960    0.90570    0.69130    1.000
    C138     C        0.46120    0.92860    0.64310    1.000
    H81      H        0.55130    0.86470    0.66980    1.000
    H82      H        0.52900    0.90420    0.60090    1.000
    H83      H        0.47050    0.90780    0.71750    1.000
    H84      H        0.43710    0.94440    0.63510    1.000
    O32      O        0.48750    0.95580    0.53810    1.000
    O33      O        0.57510    0.96910    0.45390    1.000
    Co7      Co       0.86364    0.72943    0.96652    1.000
    Co8      Co       0.77814    0.69013    0.84403    1.000
    O34      O        0.85309    0.52059    0.39188    1.000
    O35      O        0.90574    0.71486    0.94090    1.000
    O36      O        0.86346    0.68457    0.00049    1.000
    O37      O        0.80944    0.65824    0.91705    1.000
    O38      O        0.84301    0.69956    0.85340    1.000
    C139     C        0.01255    0.67535    0.81123    1.000
    O39      O        0.30677    0.74708    0.97599    1.000
    O40      O        0.28675    0.76381    0.88946    1.000
    C140     C        0.27816    0.75327    0.92260    1.000
    C141     C        0.22384    0.73677    0.88840    1.000
    C142     C        0.20871    0.72668    0.92230    1.000
    H85      H        0.22870    0.72980    0.96250    1.000
    C143     C        0.16253    0.71146    0.89661    1.000
    H86      H        0.15180    0.70540    0.92020    1.000
    C144     C        0.13280    0.70515    0.83802    1.000
    C145     C        0.14865    0.71571    0.80250    1.000
    H87      H        0.12910    0.71230    0.76240    1.000
    C146     C        0.19421    0.73141    0.82860    1.000
    H88      H        0.20500    0.73840    0.80560    1.000
    C147     C        0.08582    0.68709    0.81335    1.000
    C148     C        0.07093    0.66291    0.76922    1.000
    H89      H        0.09070    0.65880    0.75570    1.000
    C149     C        0.99879    0.65122    0.76705    1.000
    H90      H        0.96990    0.63900    0.75190    1.000
    C150     C        0.02757    0.64499    0.74505    1.000
    C151     C        0.05650    0.69297    0.83376    1.000
    H91      H        0.06630    0.70900    0.86310    1.000
    C152     C        0.01106    0.61948    0.69764    1.000
    C153     C        0.86086    0.53077    0.08970    1.000
    C154     C        0.86794    0.53055    0.14439    1.000
    H92      H        0.87000    0.55110    0.16250    1.000
    C155     C        0.98184    0.68231    0.83336    1.000
    C156     C        0.98025    0.57289    0.60626    1.000
    C157     C        0.96415    0.54720    0.55790    1.000
    C158     C        0.00118    0.69025    0.88976    1.000
    H93      H        0.03500    0.69110    0.91610    1.000
    C159     C        0.87743    0.62306    0.06286    1.000
    H94      H        0.89620    0.64180    0.08480    1.000
    C160     C        0.88165    0.59341    0.08910    1.000
    H95      H        0.90340    0.59220    0.12940    1.000
    C161     C        0.85545    0.56425    0.05981    1.000
    C162     C        0.81703    0.59768    0.97170    1.000
    H96      H        0.79410    0.59940    0.93170    1.000
    O41      O        0.99660    0.53310    0.55390    1.000
    O42      O        0.91830    0.54250    0.52400    1.000
    C163     C        0.04550    0.59940    0.69520    1.000
    H97      H        0.07860    0.60090    0.72500    1.000
    C164     C        0.03060    0.57730    0.64850    1.000
    H98      H        0.05360    0.56560    0.64540    1.000
    C165     C        0.96200    0.61525    0.65090    1.000
    H99      H        0.93860    0.62930    0.64950    1.000
    C166     C        0.94660    0.59133    0.60700    1.000
    H100     H        0.91340    0.58820    0.57860    1.000
    C167     C        0.87722    0.49365    0.22992    1.000
    C168     C        0.84708    0.47217    0.23658    1.000
    H101     H        0.82460    0.45820    0.20600    1.000
    C169     C        0.85057    0.47165    0.28899    1.000
    H102     H        0.83040    0.45730    0.29340    1.000
    C170     C        0.88419    0.49260    0.33475    1.000
    C171     C        0.91433    0.51407    0.32809    1.000
    H103     H        0.93680    0.52810    0.35870    1.000
    C172     C        0.91085    0.51460    0.27568    1.000
    H104     H        0.93100    0.52900    0.27120    1.000
    C173     C        0.84478    0.62613    0.00234    1.000
    C174     C        0.91990    0.69598    0.86990    1.000
    C175     C        0.83892    0.65878    0.97059    1.000
    C176     C        0.97123    0.69703    0.90840    1.000
    H105     H        0.98510    0.70250    0.94740    1.000
    C177     C        0.93059    0.68106    0.79372    1.000
    H106     H        0.91640    0.67640    0.75450    1.000
    C178     C        0.82270    0.56697    0.99903    1.000
    H107     H        0.80480    0.54800    0.97730    1.000
    C179     C        0.90128    0.68721    0.81570    1.000
    H108     H        0.86750    0.68490    0.79060    1.000
    C180     C        0.89210    0.70515    0.89820    1.000
    C181     C        0.02840    0.38110    0.66360    1.000
    C182     C        0.01390    0.40440    0.62090    1.000
    C183     C        0.97960    0.40570    0.69130    1.000
    C184     C        0.96120    0.42860    0.64310    1.000
    H109     H        0.05130    0.36470    0.66980    1.000
    H110     H        0.02900    0.40420    0.60090    1.000
    H111     H        0.97050    0.40780    0.71750    1.000
    H112     H        0.93710    0.44440    0.63510    1.000
    O43      O        0.98750    0.45580    0.53810    1.000
    O44      O        0.07510    0.46910    0.45390    1.000
    Co9      Co       0.36364    0.77057    0.96652    1.000
    Co10     Co       0.27814    0.80987    0.84403    1.000
    O45      O        0.35309    0.97941    0.39188    1.000
    O46      O        0.40574    0.78514    0.94090    1.000
    O47      O        0.36346    0.81543    0.00049    1.000
    O48      O        0.30944    0.84176    0.91705    1.000
    O49      O        0.34301    0.80044    0.85340    1.000
    C185     C        0.51255    0.82465    0.81123    1.000
    O50      O        0.80677    0.75292    0.97599    1.000
    O51      O        0.78675    0.73619    0.88946    1.000
    C186     C        0.77816    0.74673    0.92260    1.000
    C187     C        0.72384    0.76323    0.88840    1.000
    C188     C        0.70871    0.77332    0.92230    1.000
    H113     H        0.72870    0.77020    0.96250    1.000
    C189     C        0.66253    0.78854    0.89661    1.000
    H114     H        0.65180    0.79460    0.92020    1.000
    C190     C        0.63280    0.79485    0.83802    1.000
    C191     C        0.64865    0.78429    0.80250    1.000
    H115     H        0.62910    0.78770    0.76240    1.000
    C192     C        0.69421    0.76859    0.82860    1.000
    H116     H        0.70500    0.76160    0.80560    1.000
    C193     C        0.58582    0.81291    0.81335    1.000
    C194     C        0.57093    0.83709    0.76922    1.000
    H117     H        0.59070    0.84120    0.75570    1.000
    C195     C        0.49879    0.84878    0.76705    1.000
    H118     H        0.46990    0.86100    0.75190    1.000
    C196     C        0.52757    0.85501    0.74505    1.000
    C197     C        0.55650    0.80703    0.83376    1.000
    H119     H        0.56630    0.79100    0.86310    1.000
    C198     C        0.51106    0.88052    0.69764    1.000
    C199     C        0.36086    0.96923    0.08970    1.000
    C200     C        0.36794    0.96945    0.14439    1.000
    H120     H        0.37000    0.94890    0.16250    1.000
    C201     C        0.48184    0.81769    0.83336    1.000
    C202     C        0.48025    0.92711    0.60626    1.000
    C203     C        0.46415    0.95280    0.55790    1.000
    C204     C        0.50118    0.80975    0.88976    1.000
    H121     H        0.53500    0.80890    0.91610    1.000
    C205     C        0.37743    0.87694    0.06286    1.000
    H122     H        0.39620    0.85820    0.08480    1.000
    C206     C        0.38165    0.90659    0.08910    1.000
    H123     H        0.40340    0.90780    0.12940    1.000
    C207     C        0.35545    0.93575    0.05981    1.000
    C208     C        0.31703    0.90232    0.97170    1.000
    H124     H        0.29410    0.90060    0.93170    1.000
    O52      O        0.49660    0.96690    0.55390    1.000
    O53      O        0.41830    0.95750    0.52400    1.000
    C209     C        0.54550    0.90060    0.69520    1.000
    H125     H        0.57860    0.89910    0.72500    1.000
    C210     C        0.53060    0.92270    0.64850    1.000
    H126     H        0.55360    0.93440    0.64540    1.000
    C211     C        0.46200    0.88475    0.65090    1.000
    H127     H        0.43860    0.87070    0.64950    1.000
    C212     C        0.44660    0.90867    0.60700    1.000
    H128     H        0.41340    0.91180    0.57860    1.000
    C213     C        0.37722    0.00635    0.22992    1.000
    C214     C        0.34708    0.02783    0.23658    1.000
    H129     H        0.32460    0.04180    0.20600    1.000
    C215     C        0.35057    0.02835    0.28899    1.000
    H130     H        0.33040    0.04270    0.29340    1.000
    C216     C        0.38419    0.00740    0.33475    1.000
    C217     C        0.41433    0.98593    0.32809    1.000
    H131     H        0.43680    0.97190    0.35870    1.000
    C218     C        0.41085    0.98540    0.27568    1.000
    H132     H        0.43100    0.97100    0.27120    1.000
    C219     C        0.34478    0.87387    0.00234    1.000
    C220     C        0.41990    0.80402    0.86990    1.000
    C221     C        0.33892    0.84122    0.97059    1.000
    C222     C        0.47123    0.80297    0.90840    1.000
    H133     H        0.48510    0.79750    0.94740    1.000
    C223     C        0.43059    0.81894    0.79372    1.000
    H134     H        0.41640    0.82360    0.75450    1.000
    C224     C        0.32270    0.93303    0.99903    1.000
    H135     H        0.30480    0.95200    0.97730    1.000
    C225     C        0.40128    0.81279    0.81570    1.000
    H136     H        0.36750    0.81510    0.79060    1.000
    C226     C        0.39210    0.79485    0.89820    1.000
    C227     C        0.52840    0.11890    0.66360    1.000
    C228     C        0.51390    0.09560    0.62090    1.000
    C229     C        0.47960    0.09430    0.69130    1.000
    C230     C        0.46120    0.07140    0.64310    1.000
    H137     H        0.55130    0.13530    0.66980    1.000
    H138     H        0.52900    0.09580    0.60090    1.000
    H139     H        0.47050    0.09220    0.71750    1.000
    H140     H        0.43710    0.05560    0.63510    1.000
    O54      O        0.48750    0.04420    0.53810    1.000
    O55      O        0.57510    0.03090    0.45390    1.000
    Co11     Co       0.86364    0.27057    0.96652    1.000
    Co12     Co       0.77814    0.30987    0.84403    1.000
    O56      O        0.85309    0.47941    0.39188    1.000
    O57      O        0.90574    0.28514    0.94090    1.000
    O58      O        0.86346    0.31543    0.00049    1.000
    O59      O        0.80944    0.34176    0.91705    1.000
    O60      O        0.84301    0.30044    0.85340    1.000
    C231     C        0.01255    0.32465    0.81123    1.000
    O61      O        0.30677    0.25292    0.97599    1.000
    O62      O        0.28675    0.23619    0.88946    1.000
    C232     C        0.27816    0.24673    0.92260    1.000
    C233     C        0.22384    0.26323    0.88840    1.000
    C234     C        0.20871    0.27332    0.92230    1.000
    H141     H        0.22870    0.27020    0.96250    1.000
    C235     C        0.16253    0.28854    0.89661    1.000
    H142     H        0.15180    0.29460    0.92020    1.000
    C236     C        0.13280    0.29485    0.83802    1.000
    C237     C        0.14865    0.28429    0.80250    1.000
    H143     H        0.12910    0.28770    0.76240    1.000
    C238     C        0.19421    0.26859    0.82860    1.000
    H144     H        0.20500    0.26160    0.80560    1.000
    C239     C        0.08582    0.31291    0.81335    1.000
    C240     C        0.07093    0.33709    0.76922    1.000
    H145     H        0.09070    0.34120    0.75570    1.000
    C241     C        0.99879    0.34878    0.76705    1.000
    H146     H        0.96990    0.36100    0.75190    1.000
    C242     C        0.02757    0.35501    0.74505    1.000
    C243     C        0.05650    0.30703    0.83376    1.000
    H147     H        0.06630    0.29100    0.86310    1.000
    C244     C        0.01106    0.38052    0.69764    1.000
    C245     C        0.86086    0.46923    0.08970    1.000
    C246     C        0.86794    0.46945    0.14439    1.000
    H148     H        0.87000    0.44890    0.16250    1.000
    C247     C        0.98184    0.31769    0.83336    1.000
    C248     C        0.98025    0.42711    0.60626    1.000
    C249     C        0.96415    0.45280    0.55790    1.000
    C250     C        0.00118    0.30975    0.88976    1.000
    H149     H        0.03500    0.30890    0.91610    1.000
    C251     C        0.87743    0.37694    0.06286    1.000
    H150     H        0.89620    0.35820    0.08480    1.000
    C252     C        0.88165    0.40659    0.08910    1.000
    H151     H        0.90340    0.40780    0.12940    1.000
    C253     C        0.85545    0.43575    0.05981    1.000
    C254     C        0.81703    0.40232    0.97170    1.000
    H152     H        0.79410    0.40060    0.93170    1.000
    O63      O        0.99660    0.46690    0.55390    1.000
    O64      O        0.91830    0.45750    0.52400    1.000
    C255     C        0.04550    0.40060    0.69520    1.000
    H153     H        0.07860    0.39910    0.72500    1.000
    C256     C        0.03060    0.42270    0.64850    1.000
    H154     H        0.05360    0.43440    0.64540    1.000
    C257     C        0.96200    0.38475    0.65090    1.000
    H155     H        0.93860    0.37070    0.64950    1.000
    C258     C        0.94660    0.40867    0.60700    1.000
    H156     H        0.91340    0.41180    0.57860    1.000
    C259     C        0.87722    0.50635    0.22992    1.000
    C260     C        0.84708    0.52783    0.23658    1.000
    H157     H        0.82460    0.54180    0.20600    1.000
    C261     C        0.85057    0.52835    0.28899    1.000
    H158     H        0.83040    0.54270    0.29340    1.000
    C262     C        0.88419    0.50740    0.33475    1.000
    C263     C        0.91433    0.48593    0.32809    1.000
    H159     H        0.93680    0.47190    0.35870    1.000
    C264     C        0.91085    0.48540    0.27568    1.000
    H160     H        0.93100    0.47100    0.27120    1.000
    C265     C        0.84478    0.37387    0.00234    1.000
    C266     C        0.91990    0.30402    0.86990    1.000
    C267     C        0.83892    0.34122    0.97059    1.000
    C268     C        0.97123    0.30297    0.90840    1.000
    H161     H        0.98510    0.29750    0.94740    1.000
    C269     C        0.93059    0.31894    0.79372    1.000
    H162     H        0.91640    0.32360    0.75450    1.000
    C270     C        0.82270    0.43303    0.99903    1.000
    H163     H        0.80480    0.45200    0.97730    1.000
    C271     C        0.90128    0.31279    0.81570    1.000
    H164     H        0.86750    0.31510    0.79060    1.000
    C272     C        0.89210    0.29485    0.89820    1.000
    C273     C        0.02840    0.61890    0.66360    1.000
    C274     C        0.01390    0.59560    0.62090    1.000
    C275     C        0.97960    0.59430    0.69130    1.000
    C276     C        0.96120    0.57140    0.64310    1.000
    H165     H        0.05130    0.63530    0.66980    1.000
    H166     H        0.02900    0.59580    0.60090    1.000
    H167     H        0.97050    0.59220    0.71750    1.000
    H168     H        0.93710    0.55560    0.63510    1.000
    O65      O        0.98750    0.54420    0.53810    1.000
    O66      O        0.07510    0.53090    0.45390    1.000
    Co13     Co       0.63636    0.77057    0.03348    1.000
    Co14     Co       0.72186    0.80987    0.15597    1.000
    O67      O        0.64691    0.97941    0.60812    1.000
    O68      O        0.59426    0.78514    0.05910    1.000
    O69      O        0.63654    0.81543    0.99951    1.000
    O70      O        0.69056    0.84176    0.08295    1.000
    O71      O        0.65699    0.80044    0.14660    1.000
    C277     C        0.48745    0.82465    0.18877    1.000
    O72      O        0.19323    0.75292    0.02401    1.000
    O73      O        0.21325    0.73619    0.11054    1.000
    C278     C        0.22184    0.74673    0.07740    1.000
    C279     C        0.27616    0.76323    0.11160    1.000
    C280     C        0.29129    0.77332    0.07770    1.000
    H169     H        0.27130    0.77020    0.03750    1.000
    C281     C        0.33747    0.78854    0.10339    1.000
    H170     H        0.34820    0.79460    0.07980    1.000
    C282     C        0.36720    0.79485    0.16198    1.000
    C283     C        0.35135    0.78429    0.19750    1.000
    H171     H        0.37090    0.78770    0.23760    1.000
    C284     C        0.30579    0.76859    0.17140    1.000
    H172     H        0.29500    0.76160    0.19440    1.000
    C285     C        0.41418    0.81291    0.18665    1.000
    C286     C        0.42907    0.83709    0.23078    1.000
    H173     H        0.40930    0.84120    0.24430    1.000
    C287     C        0.50121    0.84878    0.23295    1.000
    H174     H        0.53010    0.86100    0.24810    1.000
    C288     C        0.47243    0.85501    0.25495    1.000
    C289     C        0.44350    0.80703    0.16624    1.000
    H175     H        0.43370    0.79100    0.13690    1.000
    C290     C        0.48894    0.88052    0.30236    1.000
    C291     C        0.63914    0.96923    0.91030    1.000
    C292     C        0.63206    0.96945    0.85561    1.000
    H176     H        0.63000    0.94890    0.83750    1.000
    C293     C        0.51816    0.81769    0.16664    1.000
    C294     C        0.51975    0.92711    0.39374    1.000
    C295     C        0.53585    0.95280    0.44210    1.000
    C296     C        0.49882    0.80975    0.11024    1.000
    H177     H        0.46500    0.80890    0.08390    1.000
    C297     C        0.62257    0.87694    0.93714    1.000
    H178     H        0.60380    0.85820    0.91520    1.000
    C298     C        0.61835    0.90659    0.91090    1.000
    H179     H        0.59660    0.90780    0.87060    1.000
    C299     C        0.64455    0.93575    0.94019    1.000
    C300     C        0.68297    0.90232    0.02830    1.000
    H180     H        0.70590    0.90060    0.06830    1.000
    O74      O        0.50340    0.96690    0.44610    1.000
    O75      O        0.58170    0.95750    0.47600    1.000
    C301     C        0.45450    0.90060    0.30480    1.000
    H181     H        0.42140    0.89910    0.27500    1.000
    C302     C        0.46940    0.92270    0.35150    1.000
    H182     H        0.44640    0.93440    0.35460    1.000
    C303     C        0.53800    0.88475    0.34910    1.000
    H183     H        0.56140    0.87070    0.35050    1.000
    C304     C        0.55340    0.90867    0.39300    1.000
    H184     H        0.58660    0.91180    0.42140    1.000
    C305     C        0.62278    0.00635    0.77008    1.000
    C306     C        0.65292    0.02783    0.76342    1.000
    H185     H        0.67540    0.04180    0.79400    1.000
    C307     C        0.64943    0.02835    0.71101    1.000
    H186     H        0.66960    0.04270    0.70660    1.000
    C308     C        0.61581    0.00740    0.66525    1.000
    C309     C        0.58567    0.98593    0.67191    1.000
    H187     H        0.56320    0.97190    0.64130    1.000
    C310     C        0.58915    0.98540    0.72432    1.000
    H188     H        0.56900    0.97100    0.72880    1.000
    C311     C        0.65522    0.87387    0.99766    1.000
    C312     C        0.58010    0.80402    0.13010    1.000
    C313     C        0.66108    0.84122    0.02941    1.000
    C314     C        0.52877    0.80297    0.09160    1.000
    H189     H        0.51490    0.79750    0.05260    1.000
    C315     C        0.56941    0.81894    0.20628    1.000
    H190     H        0.58360    0.82360    0.24550    1.000
    C316     C        0.67730    0.93303    0.00097    1.000
    H191     H        0.69520    0.95200    0.02270    1.000
    C317     C        0.59872    0.81279    0.18430    1.000
    H192     H        0.63250    0.81510    0.20940    1.000
    C318     C        0.60790    0.79485    0.10180    1.000
    C319     C        0.47160    0.11890    0.33640    1.000
    C320     C        0.48610    0.09560    0.37910    1.000
    C321     C        0.52040    0.09430    0.30870    1.000
    C322     C        0.53880    0.07140    0.35690    1.000
    H193     H        0.44870    0.13530    0.33020    1.000
    H194     H        0.47100    0.09580    0.39910    1.000
    H195     H        0.52950    0.09220    0.28250    1.000
    H196     H        0.56290    0.05560    0.36490    1.000
    O76      O        0.51250    0.04420    0.46190    1.000
    O77      O        0.42490    0.03090    0.54610    1.000
    Co15     Co       0.13636    0.27057    0.03348    1.000
    Co16     Co       0.22186    0.30987    0.15597    1.000
    O78      O        0.14691    0.47941    0.60812    1.000
    O79      O        0.09426    0.28514    0.05910    1.000
    O80      O        0.13654    0.31543    0.99951    1.000
    O81      O        0.19056    0.34176    0.08295    1.000
    O82      O        0.15699    0.30044    0.14660    1.000
    C323     C        0.98745    0.32465    0.18877    1.000
    O83      O        0.69323    0.25292    0.02401    1.000
    O84      O        0.71325    0.23619    0.11054    1.000
    C324     C        0.72184    0.24673    0.07740    1.000
    C325     C        0.77616    0.26323    0.11160    1.000
    C326     C        0.79129    0.27332    0.07770    1.000
    H197     H        0.77130    0.27020    0.03750    1.000
    C327     C        0.83747    0.28854    0.10339    1.000
    H198     H        0.84820    0.29460    0.07980    1.000
    C328     C        0.86720    0.29485    0.16198    1.000
    C329     C        0.85135    0.28429    0.19750    1.000
    H199     H        0.87090    0.28770    0.23760    1.000
    C330     C        0.80579    0.26859    0.17140    1.000
    H200     H        0.79500    0.26160    0.19440    1.000
    C331     C        0.91418    0.31291    0.18665    1.000
    C332     C        0.92907    0.33709    0.23078    1.000
    H201     H        0.90930    0.34120    0.24430    1.000
    C333     C        0.00121    0.34878    0.23295    1.000
    H202     H        0.03010    0.36100    0.24810    1.000
    C334     C        0.97243    0.35501    0.25495    1.000
    C335     C        0.94350    0.30703    0.16624    1.000
    H203     H        0.93370    0.29100    0.13690    1.000
    C336     C        0.98894    0.38052    0.30236    1.000
    C337     C        0.13914    0.46923    0.91030    1.000
    C338     C        0.13206    0.46945    0.85561    1.000
    H204     H        0.13000    0.44890    0.83750    1.000
    C339     C        0.01816    0.31769    0.16664    1.000
    C340     C        0.01975    0.42711    0.39374    1.000
    C341     C        0.03585    0.45280    0.44210    1.000
    C342     C        0.99882    0.30975    0.11024    1.000
    H205     H        0.96500    0.30890    0.08390    1.000
    C343     C        0.12257    0.37694    0.93714    1.000
    H206     H        0.10380    0.35820    0.91520    1.000
    C344     C        0.11835    0.40659    0.91090    1.000
    H207     H        0.09660    0.40780    0.87060    1.000
    C345     C        0.14455    0.43575    0.94019    1.000
    C346     C        0.18297    0.40232    0.02830    1.000
    H208     H        0.20590    0.40060    0.06830    1.000
    O85      O        0.00340    0.46690    0.44610    1.000
    O86      O        0.08170    0.45750    0.47600    1.000
    C347     C        0.95450    0.40060    0.30480    1.000
    H209     H        0.92140    0.39910    0.27500    1.000
    C348     C        0.96940    0.42270    0.35150    1.000
    H210     H        0.94640    0.43440    0.35460    1.000
    C349     C        0.03800    0.38475    0.34910    1.000
    H211     H        0.06140    0.37070    0.35050    1.000
    C350     C        0.05340    0.40867    0.39300    1.000
    H212     H        0.08660    0.41180    0.42140    1.000
    C351     C        0.12278    0.50635    0.77008    1.000
    C352     C        0.15292    0.52783    0.76342    1.000
    H213     H        0.17540    0.54180    0.79400    1.000
    C353     C        0.14943    0.52835    0.71101    1.000
    H214     H        0.16960    0.54270    0.70660    1.000
    C354     C        0.11581    0.50740    0.66525    1.000
    C355     C        0.08567    0.48593    0.67191    1.000
    H215     H        0.06320    0.47190    0.64130    1.000
    C356     C        0.08915    0.48540    0.72432    1.000
    H216     H        0.06900    0.47100    0.72880    1.000
    C357     C        0.15522    0.37387    0.99766    1.000
    C358     C        0.08010    0.30402    0.13010    1.000
    C359     C        0.16108    0.34122    0.02941    1.000
    C360     C        0.02877    0.30297    0.09160    1.000
    H217     H        0.01490    0.29750    0.05260    1.000
    C361     C        0.06941    0.31894    0.20628    1.000
    H218     H        0.08360    0.32360    0.24550    1.000
    C362     C        0.17730    0.43303    0.00097    1.000
    H219     H        0.19520    0.45200    0.02270    1.000
    C363     C        0.09872    0.31279    0.18430    1.000
    H220     H        0.13250    0.31510    0.20940    1.000
    C364     C        0.10790    0.29485    0.10180    1.000
    C365     C        0.97160    0.61890    0.33640    1.000
    C366     C        0.98610    0.59560    0.37910    1.000
    C367     C        0.02040    0.59430    0.30870    1.000
    C368     C        0.03880    0.57140    0.35690    1.000
    H221     H        0.94870    0.63530    0.33020    1.000
    H222     H        0.97100    0.59580    0.39910    1.000
    H223     H        0.02950    0.59220    0.28250    1.000
    H224     H        0.06290    0.55560    0.36490    1.000
    O87      O        0.01250    0.54420    0.46190    1.000
    O88      O        0.92490    0.53090    0.54610    1.000
    Co17     Co       0.50000    0.00000    0.50000    1.000
    Co18     Co       0.00000    0.50000    0.50000    1.000
    Co19     Co       0.61522    0.00000    0.52238    1.000
    O89      O        0.57753    0.00000    0.56457    1.000
    C369     C        0.64260    0.00000    0.93705    1.000
    H225     H        0.64730    0.00000    0.97350    1.000
    C370     C        0.61165    0.00000    0.60950    1.000
    C371     C        0.62814    0.00000    0.82833    1.000
    Co20     Co       0.11522    0.50000    0.52238    1.000
    O90      O        0.07753    0.50000    0.56457    1.000
    C372     C        0.14260    0.50000    0.93705    1.000
    H226     H        0.14730    0.50000    0.97350    1.000
    C373     C        0.11165    0.50000    0.60950    1.000
    C374     C        0.12814    0.50000    0.82833    1.000
    Co21     Co       0.38478    0.00000    0.47762    1.000
    O91      O        0.42247    0.00000    0.43543    1.000
    C375     C        0.35740    0.00000    0.06295    1.000
    H227     H        0.35270    0.00000    0.02650    1.000
    C376     C        0.38835    0.00000    0.39050    1.000
    C377     C        0.37186    0.00000    0.17167    1.000
    Co22     Co       0.88478    0.50000    0.47762    1.000
    O92      O        0.92247    0.50000    0.43543    1.000
    C378     C        0.85740    0.50000    0.06295    1.000
    H228     H        0.85270    0.50000    0.02650    1.000
    C379     C        0.88835    0.50000    0.39050    1.000
    C380     C        0.87186    0.50000    0.17167    1.000
