# CIF file generated by openbabel 3.1.0, see https://openbabel.org
data_I
_chemical_name_common 'IXEDOE_charged'
_cell_length_a 13.1569
_cell_length_b 13.1569
_cell_length_c 23.688
_cell_angle_alpha 97.1021
_cell_angle_beta 97.1021
_cell_angle_gamma 118.166
_space_group_name_H-M_alt 'P 1'
_space_group_name_Hall 'P 1'
loop_
    _symmetry_equiv_pos_as_xyz
    x,y,z
loop_
    _atom_site_label
    _atom_site_type_symbol
    _atom_site_fract_x
    _atom_site_fract_y
    _atom_site_fract_z
    _atom_site_occupancy
    La1      La       0.86885    0.56309    0.75447    1.000
    La2      La       0.56309    0.86885    0.25447    1.000
    H1       H        0.55880    0.44400    0.71940    1.000
    H2       H        0.36100    0.38960    0.70510    1.000
    H3       H        0.45450    0.73110    0.71420    1.000
    H4       H        0.65060    0.77980    0.73200    1.000
    H5       H        0.87360    0.84780    0.68480    1.000
    H6       H        0.81070    0.90670    0.60600    1.000
    H7       H        0.83590    0.66130    0.49840    1.000
    H8       H        0.89370    0.60290    0.57830    1.000
    H9       H        0.64250    0.18170    0.66720    1.000
    H10      H        0.57370    0.06510    0.57430    1.000
    H11      H        0.62310    0.34930    0.51020    1.000
    H12      H        0.67490    0.45750    0.60320    1.000
    H13      H        0.07450    0.85710    0.75940    1.000
    H14      H        0.22780    0.04560    0.76930    1.000
    H15      H        0.45920    0.93080    0.80300    1.000
    H16      H        0.30220    0.74260    0.79060    1.000
    H17      H        0.59780    0.15020    0.34140    1.000
    H18      H        0.65950    0.25950    0.43560    1.000
    H19      H        0.43550    0.96870    0.48830    1.000
    H20      H        0.37800    0.86300    0.39370    1.000
    H21      H        0.72310    0.03030    0.45450    1.000
    H22      H        0.78020    0.97500    0.53600    1.000
    H23      H        0.76420    0.70060    0.43120    1.000
    H24      H        0.71230    0.76430    0.35140    1.000
    H25      H        0.52260    0.40740    0.83200    1.000
    H26      H        0.36830    0.21710    0.81950    1.000
    H27      H        0.58550    0.09510    0.77790    1.000
    H28      H        0.73520    0.28620    0.79040    1.000
    H29      H        0.00500    0.33480    0.72440    1.000
    H30      H        0.20110    0.37990    0.73600    1.000
    H31      H        0.27090    0.65370    0.65710    1.000
    H32      H        0.07520    0.60320    0.64530    1.000
    H33      H        0.44400    0.55880    0.21940    1.000
    H34      H        0.38960    0.36100    0.20510    1.000
    H35      H        0.73110    0.45450    0.21420    1.000
    H36      H        0.77980    0.65060    0.23200    1.000
    H37      H        0.84780    0.87360    0.18480    1.000
    H38      H        0.90670    0.81070    0.10600    1.000
    H39      H        0.66130    0.83590    0.99840    1.000
    H40      H        0.60290    0.89370    0.07830    1.000
    H41      H        0.18170    0.64250    0.16720    1.000
    H42      H        0.06510    0.57370    0.07430    1.000
    H43      H        0.34930    0.62310    0.01020    1.000
    H44      H        0.45750    0.67490    0.10320    1.000
    H45      H        0.85710    0.07450    0.25940    1.000
    H46      H        0.04560    0.22780    0.26930    1.000
    H47      H        0.93080    0.45920    0.30300    1.000
    H48      H        0.74260    0.30220    0.29060    1.000
    H49      H        0.15020    0.59780    0.84140    1.000
    H50      H        0.25950    0.65950    0.93560    1.000
    H51      H        0.96870    0.43550    0.98830    1.000
    H52      H        0.86300    0.37800    0.89370    1.000
    H53      H        0.03030    0.72310    0.95450    1.000
    H54      H        0.97500    0.78020    0.03600    1.000
    H55      H        0.70060    0.76420    0.93120    1.000
    H56      H        0.76430    0.71230    0.85140    1.000
    H57      H        0.40740    0.52260    0.33200    1.000
    H58      H        0.21710    0.36830    0.31950    1.000
    H59      H        0.09510    0.58550    0.27790    1.000
    H60      H        0.28620    0.73520    0.29040    1.000
    H61      H        0.33480    0.00500    0.22440    1.000
    H62      H        0.37990    0.20110    0.23600    1.000
    H63      H        0.65370    0.27090    0.15710    1.000
    H64      H        0.60320    0.07520    0.14530    1.000
    C1       C        0.53640    0.50300    0.71950    1.000
    C2       C        0.41890    0.47030    0.71020    1.000
    C3       C        0.38420    0.55540    0.70840    1.000
    C4       C        0.47410    0.67050    0.71610    1.000
    C5       C        0.59060    0.69980    0.72640    1.000
    C6       C        0.86530    0.80950    0.64640    1.000
    C7       C        0.82870    0.84490    0.59970    1.000
    C8       C        0.81790    0.79210    0.54360    1.000
    C9       C        0.84290    0.70030    0.53640    1.000
    C10      C        0.87760    0.66620    0.58380    1.000
    C11      C        0.63460    0.21500    0.63460    1.000
    C12      C        0.59650    0.14630    0.57950    1.000
    C13      C        0.59130    0.19510    0.53210    1.000
    C14      C        0.62340    0.31260    0.54230    1.000
    C15      C        0.65580    0.37720    0.59720    1.000
    C16      C        0.15350    0.87290    0.76860    1.000
    C17      C        0.24480    0.98420    0.77430    1.000
    C18      C        0.36120    0.01100    0.78730    1.000
    C19      C        0.38090    0.91730    0.79390    1.000
    C20      C        0.28740    0.80600    0.78730    1.000
    C21      C        0.56480    0.11380    0.37180    1.000
    C22      C        0.60120    0.17840    0.42750    1.000
    C23      C        0.55350    0.12630    0.47220    1.000
    C24      C        0.46930    0.00690    0.45850    1.000
    C25      C        0.43500    0.94440    0.40260    1.000
    C26      C        0.73490    0.96410    0.45000    1.000
    C27      C        0.76680    0.93060    0.49840    1.000
    C28      C        0.77970    0.82950    0.49220    1.000
    C29      C        0.75820    0.77020    0.43710    1.000
    C30      C        0.72790    0.80810    0.38950    1.000
    C31      C        0.53420    0.34260    0.82020    1.000
    C32      C        0.44280    0.23000    0.81290    1.000
    C33      C        0.45880    0.13300    0.79560    1.000
    C34      C        0.57050    0.15810    0.78830    1.000
    C35      C        0.65930    0.27090    0.79580    1.000
    C36      C        0.06020    0.40040    0.71120    1.000
    C37      C        0.17650    0.42730    0.71790    1.000
    C38      C        0.25750    0.52210    0.69880    1.000
    C39      C        0.21770    0.58830    0.67130    1.000
    C40      C        0.10180    0.55860    0.66490    1.000
    C41      C        0.50300    0.53640    0.21950    1.000
    C42      C        0.47030    0.41890    0.21020    1.000
    C43      C        0.55540    0.38420    0.20840    1.000
    C44      C        0.67050    0.47410    0.21610    1.000
    C45      C        0.69980    0.59060    0.22640    1.000
    C46      C        0.80950    0.86530    0.14640    1.000
    C47      C        0.84490    0.82870    0.09970    1.000
    C48      C        0.79210    0.81790    0.04360    1.000
    C49      C        0.70030    0.84290    0.03640    1.000
    C50      C        0.66620    0.87760    0.08380    1.000
    C51      C        0.21500    0.63460    0.13460    1.000
    C52      C        0.14630    0.59650    0.07950    1.000
    C53      C        0.19510    0.59130    0.03210    1.000
    C54      C        0.31260    0.62340    0.04230    1.000
    C55      C        0.37720    0.65580    0.09720    1.000
    C56      C        0.87290    0.15350    0.26860    1.000
    C57      C        0.98420    0.24480    0.27430    1.000
    C58      C        0.01100    0.36120    0.28730    1.000
    C59      C        0.91730    0.38090    0.29390    1.000
    C60      C        0.80600    0.28740    0.28730    1.000
    C61      C        0.11380    0.56480    0.87180    1.000
    C62      C        0.17840    0.60120    0.92750    1.000
    C63      C        0.12630    0.55350    0.97220    1.000
    C64      C        0.00690    0.46930    0.95850    1.000
    C65      C        0.94440    0.43500    0.90260    1.000
    C66      C        0.96410    0.73490    0.95000    1.000
    C67      C        0.93060    0.76680    0.99840    1.000
    C68      C        0.82950    0.77970    0.99220    1.000
    C69      C        0.77020    0.75820    0.93710    1.000
    C70      C        0.80810    0.72790    0.88950    1.000
    C71      C        0.34260    0.53420    0.32020    1.000
    C72      C        0.23000    0.44280    0.31290    1.000
    C73      C        0.13300    0.45880    0.29560    1.000
    C74      C        0.15810    0.57050    0.28830    1.000
    C75      C        0.27090    0.65930    0.29580    1.000
    C76      C        0.40040    0.06020    0.21120    1.000
    C77      C        0.42730    0.17650    0.21790    1.000
    C78      C        0.52210    0.25750    0.19880    1.000
    C79      C        0.58830    0.21770    0.17130    1.000
    C80      C        0.55860    0.10180    0.16490    1.000
    N1       N        0.61920    0.61500    0.72850    1.000
    N2       N        0.88950    0.72090    0.63830    1.000
    N3       N        0.66090    0.32770    0.64320    1.000
    N4       N        0.17670    0.78430    0.77630    1.000
    N5       N        0.48170    0.99790    0.36000    1.000
    N6       N        0.72020    0.90660    0.39660    1.000
    N7       N        0.63910    0.36210    0.81110    1.000
    N8       N        0.02530    0.46950    0.68520    1.000
    N9       N        0.61500    0.61920    0.22850    1.000
    N10      N        0.72090    0.88950    0.13830    1.000
    N11      N        0.32770    0.66090    0.14320    1.000
    N12      N        0.78430    0.17670    0.27630    1.000
    N13      N        0.99790    0.48170    0.86000    1.000
    N14      N        0.90660    0.72020    0.89660    1.000
    N15      N        0.36210    0.63910    0.31110    1.000
    N16      N        0.46950    0.02530    0.18520    1.000
    O1       O        0.73260    0.64520    0.73710    1.000
    O2       O        0.92890    0.68910    0.68260    1.000
    O3       O        0.69090    0.38970    0.69660    1.000
    O4       O        0.08960    0.67660    0.77130    1.000
    O5       O        0.44670    0.93910    0.30540    1.000
    O6       O        0.69690    0.94670    0.35070    1.000
    O7       O        0.72600    0.47160    0.81860    1.000
    O8       O        0.91490    0.44610    0.68110    1.000
    O9       O        0.64520    0.73260    0.23710    1.000
    O10      O        0.68910    0.92890    0.18260    1.000
    O11      O        0.38970    0.69090    0.19660    1.000
    O12      O        0.67660    0.08960    0.27130    1.000
    O13      O        0.93910    0.44670    0.80540    1.000
    O14      O        0.94670    0.69690    0.85070    1.000
    O15      O        0.47160    0.72600    0.31860    1.000
    O16      O        0.44610    0.91490    0.18110    1.000
    Cl1      Cl       0.74628    0.04046    0.69940    1.000
    O17      O        0.80140    0.15060    0.73990    1.000
    O18      O        0.78980    0.96620    0.71840    1.000
    O19      O        0.76790    0.05650    0.64210    1.000
    O20      O        0.62120    0.98560    0.69620    1.000
    Cl2      Cl       0.65834    0.46110    0.36890    1.000
    O21      O        0.60640    0.34260    0.33830    1.000
    O22      O        0.59360    0.51500    0.34990    1.000
    O23      O        0.77390    0.52710    0.35650    1.000
    O24      O        0.66940    0.46560    0.42970    1.000
    Cl3      Cl       0.18730    0.78210    0.55520    1.000
    O25      O        0.16890    0.82610    0.61110    1.000
    O26      O        0.23220    0.70220    0.56340    1.000
    O27      O        0.06970    0.70970    0.51470    1.000
    O28      O        0.25780    0.87260    0.52860    1.000
    Cl4      Cl       0.04046    0.74628    0.19940    1.000
    O29      O        0.15060    0.80140    0.23990    1.000
    O30      O        0.96620    0.78980    0.21840    1.000
    O31      O        0.05650    0.76790    0.14210    1.000
    O32      O        0.98560    0.62120    0.19620    1.000
    Cl5      Cl       0.46110    0.65834    0.86890    1.000
    O33      O        0.34260    0.60640    0.83830    1.000
    O34      O        0.51500    0.59360    0.84990    1.000
    O35      O        0.52710    0.77390    0.85650    1.000
    O36      O        0.46560    0.66940    0.92970    1.000
    Cl6      Cl       0.78210    0.18730    0.05520    1.000
    O37      O        0.82610    0.16890    0.11110    1.000
    O38      O        0.70220    0.23220    0.06340    1.000
    O39      O        0.70970    0.06970    0.01470    1.000
    O40      O        0.87260    0.25780    0.02860    1.000
