# CIF file generated by openbabel 3.1.0, see https://openbabel.org
data_I
_chemical_name_common 'WEWTOI_clean'
_cell_length_a 5.742
_cell_length_b 8.55
_cell_length_c 18.512
_cell_angle_alpha 90
_cell_angle_beta 90
_cell_angle_gamma 90
_space_group_name_H-M_alt 'P 1'
_space_group_name_Hall 'P 1'
loop_
    _symmetry_equiv_pos_as_xyz
    x,y,z
loop_
    _atom_site_label
    _atom_site_type_symbol
    _atom_site_fract_x
    _atom_site_fract_y
    _atom_site_fract_z
    _atom_site_occupancy
    Np1      Np       0.49210    0.08055    0.51614    1.000
    Np2      Np       0.00790    0.91945    0.01614    1.000
    Np3      Np       0.50790    0.58055    0.98386    1.000
    Np4      Np       0.99210    0.41945    0.48386    1.000
    H1       H        0.86480    0.19820    0.14800    1.000
    H2       H        0.44120    0.95840    0.13970    1.000
    H3       H        0.93330    0.26310    0.26570    1.000
    H4       H        0.52110    0.00980    0.25960    1.000
    H5       H        0.63520    0.80180    0.64800    1.000
    H6       H        0.05880    0.04160    0.63970    1.000
    H7       H        0.56670    0.73690    0.76570    1.000
    H8       H        0.97890    0.99020    0.75960    1.000
    H9       H        0.13520    0.69820    0.35200    1.000
    H10      H        0.55880    0.45840    0.36030    1.000
    H11      H        0.06670    0.76310    0.23430    1.000
    H12      H        0.47890    0.50980    0.24040    1.000
    H13      H        0.36480    0.30180    0.85200    1.000
    H14      H        0.94120    0.54160    0.86030    1.000
    H15      H        0.43330    0.23690    0.73430    1.000
    H16      H        0.02110    0.49020    0.74040    1.000
    C1       C        0.99700    0.15900    0.17050    1.000
    C2       C        0.33600    0.01740    0.16630    1.000
    C3       C        0.04000    0.20030    0.24130    1.000
    C4       C        0.38880    0.05150    0.23800    1.000
    C5       C        0.24040    0.14900    0.27660    1.000
    C6       C        0.28310    0.18640    0.35420    1.000
    C7       C        0.50300    0.84100    0.67050    1.000
    C8       C        0.16400    0.98260    0.66630    1.000
    C9       C        0.46000    0.79970    0.74130    1.000
    C10      C        0.11120    0.94850    0.73800    1.000
    C11      C        0.25960    0.85100    0.77660    1.000
    C12      C        0.21690    0.81360    0.85420    1.000
    C13      C        0.00300    0.65900    0.32950    1.000
    C14      C        0.66400    0.51740    0.33370    1.000
    C15      C        0.96000    0.70030    0.25870    1.000
    C16      C        0.61120    0.55150    0.26200    1.000
    C17      C        0.75960    0.64900    0.22340    1.000
    C18      C        0.71690    0.68640    0.14580    1.000
    C19      C        0.49700    0.34100    0.82950    1.000
    C20      C        0.83600    0.48260    0.83370    1.000
    C21      C        0.54000    0.29970    0.75870    1.000
    C22      C        0.88880    0.44850    0.76200    1.000
    C23      C        0.74040    0.35100    0.72340    1.000
    C24      C        0.78310    0.31360    0.64580    1.000
    N1       N        0.13650    0.06630    0.13310    1.000
    N2       N        0.36350    0.93370    0.63310    1.000
    N3       N        0.86350    0.56630    0.36690    1.000
    N4       N        0.63650    0.43370    0.86690    1.000
    O1       O        0.42310    0.10330    0.38680    1.000
    O2       O        0.17830    0.30390    0.37930    1.000
    O3       O        0.25380    0.22090    0.52960    1.000
    O4       O        0.07690    0.89670    0.88680    1.000
    O5       O        0.32170    0.69610    0.87930    1.000
    O6       O        0.24620    0.77910    0.02960    1.000
    O7       O        0.57690    0.60330    0.11320    1.000
    O8       O        0.82170    0.80390    0.12070    1.000
    O9       O        0.74620    0.72090    0.97040    1.000
    O10      O        0.92310    0.39670    0.61320    1.000
    O11      O        0.67830    0.19610    0.62070    1.000
    O12      O        0.75380    0.27910    0.47040    1.000
