# CIF file generated by openbabel 3.1.0, see https://openbabel.org
data_I
_chemical_name_common 'image0'
_cell_length_a 15.8664
_cell_length_b 15.8664
_cell_length_c 21.7986
_cell_angle_alpha 90
_cell_angle_beta 90
_cell_angle_gamma 90
_space_group_name_H-M_alt 'P 1'
_space_group_name_Hall 'P 1'
loop_
    _symmetry_equiv_pos_as_xyz
    x,y,z
loop_
    _atom_site_label
    _atom_site_type_symbol
    _atom_site_fract_x
    _atom_site_fract_y
    _atom_site_fract_z
    _atom_site_occupancy
    C1       C        0.75600    0.96290    0.78620    1.000
    H1       H        0.76030    0.99410    0.82220    1.000
    C2       C        0.69130    0.90450    0.78160    1.000
    H2       H        0.65430    0.89690    0.81420    1.000
    C3       C        0.68150    0.85680    0.72810    1.000
    C4       C        0.73830    0.87530    0.68020    1.000
    H3       H        0.73340    0.84800    0.64270    1.000
    C5       C        0.80140    0.93410    0.68930    1.000
    H4       H        0.83830    0.94470    0.65710    1.000
    C6       C        0.61640    0.79040    0.72260    1.000
    C7       C        0.54720    0.78540    0.76200    1.000
    H5       H        0.54040    0.82590    0.79250    1.000
    C8       C        0.48900    0.72150    0.75660    1.000
    H6       H        0.44270    0.72030    0.78280    1.000
    C9       C        0.49830    0.65930    0.71280    1.000
    H7       H        0.45800    0.61710    0.70900    1.000
    C10      C        0.56880    0.66000    0.67420    1.000
    C11      C        0.62690    0.72580    0.67890    1.000
    H8       H        0.67330    0.72700    0.65280    1.000
    C12      C        0.57680    0.59170    0.62934    1.000
    C13      C        0.62850    0.49720    0.56697    1.000
    C14      C        0.69110    0.44120    0.53705    1.000
    C15      C        0.72170    0.45730    0.47790    1.000
    H9       H        0.70310    0.50390    0.45590    1.000
    C16      C        0.78070    0.40190    0.45260    1.000
    H10      H        0.80030    0.41090    0.41300    1.000
    C17      C        0.81030    0.33370    0.48610    1.000
    H11      H        0.84940    0.29740    0.46860    1.000
    C18      C        0.78200    0.31900    0.54570    1.000
    C19      C        0.72070    0.37410    0.56970    1.000
    H12      H        0.69990    0.36440    0.60900    1.000
    C20      C        0.81230    0.24680    0.58280    1.000
    C21      C        0.76930    0.22110    0.63540    1.000
    H13      H        0.71800    0.24580    0.64550    1.000
    C22      C        0.80270    0.15940    0.67240    1.000
    H14      H        0.77240    0.14340    0.70700    1.000
    C23      C        0.91500    0.13980    0.60890    1.000
    H15      H        0.96360    0.11030    0.59840    1.000
    C24      C        0.88580    0.20210    0.56880    1.000
    H16      H        0.91520    0.21380    0.53290    1.000
    N1       N        0.81260    0.97680    0.74193    1.000
    N2       N        0.51290    0.55230    0.60443    1.000
    N3       N        0.54580    0.49220    0.56505    1.000
    N4       N        0.65010    0.55880    0.60694    1.000
    N5       N        0.73270    0.58160    0.62480    1.000
    N6       N        0.87680    0.12050    0.66150    1.000
    H17      H        0.76120    0.53340    0.62080    1.000
    H18      H        0.74190    0.61500    0.59100    1.000
    C25      C        0.24400    0.03710    0.28620    1.000
    H19      H        0.23970    0.00590    0.32220    1.000
    C26      C        0.30870    0.09550    0.28160    1.000
    H20      H        0.34570    0.10310    0.31420    1.000
    C27      C        0.31850    0.14320    0.22810    1.000
    C28      C        0.26170    0.12470    0.18020    1.000
    H21      H        0.26660    0.15200    0.14270    1.000
    C29      C        0.19860    0.06590    0.18930    1.000
    H22      H        0.16170    0.05530    0.15710    1.000
    C30      C        0.38360    0.20960    0.22260    1.000
    C31      C        0.45280    0.21460    0.26200    1.000
    H23      H        0.45960    0.17410    0.29250    1.000
    C32      C        0.51100    0.27850    0.25660    1.000
    H24      H        0.55730    0.27970    0.28280    1.000
    C33      C        0.50170    0.34070    0.21280    1.000
    H25      H        0.54200    0.38290    0.20900    1.000
    C34      C        0.43120    0.34000    0.17420    1.000
    C35      C        0.37310    0.27420    0.17890    1.000
    H26      H        0.32670    0.27300    0.15280    1.000
    C36      C        0.42320    0.40830    0.12934    1.000
    C37      C        0.37150    0.50280    0.06697    1.000
    C38      C        0.30890    0.55880    0.03705    1.000
    C39      C        0.27830    0.54270    0.97790    1.000
    H27      H        0.29690    0.49610    0.95590    1.000
    C40      C        0.21930    0.59810    0.95260    1.000
    H28      H        0.19970    0.58910    0.91300    1.000
    C41      C        0.18970    0.66630    0.98610    1.000
    H29      H        0.15060    0.70260    0.96860    1.000
    C42      C        0.21800    0.68100    0.04570    1.000
    C43      C        0.27930    0.62590    0.06970    1.000
    H30      H        0.30010    0.63560    0.10900    1.000
    C44      C        0.18770    0.75320    0.08280    1.000
    C45      C        0.23070    0.77890    0.13540    1.000
    H31      H        0.28200    0.75420    0.14550    1.000
    C46      C        0.19730    0.84060    0.17240    1.000
    H32      H        0.22760    0.85660    0.20700    1.000
    C47      C        0.08500    0.86020    0.10890    1.000
    H33      H        0.03640    0.88970    0.09840    1.000
    C48      C        0.11420    0.79790    0.06880    1.000
    H34      H        0.08480    0.78620    0.03290    1.000
    N7       N        0.18740    0.02320    0.24193    1.000
    N8       N        0.48710    0.44770    0.10443    1.000
    N9       N        0.45420    0.50780    0.06505    1.000
    N10      N        0.34990    0.44120    0.10694    1.000
    N11      N        0.26730    0.41840    0.12480    1.000
    N12      N        0.12320    0.87950    0.16150    1.000
    H35      H        0.23880    0.46660    0.12080    1.000
    H36      H        0.25810    0.38500    0.09100    1.000
    C49      C        0.53710    0.25600    0.53620    1.000
    H37      H        0.50590    0.26030    0.57220    1.000
    C50      C        0.59550    0.19130    0.53160    1.000
    H38      H        0.60310    0.15430    0.56420    1.000
    C51      C        0.64320    0.18150    0.47810    1.000
    C52      C        0.62470    0.23830    0.43020    1.000
    H39      H        0.65200    0.23340    0.39270    1.000
    C53      C        0.56590    0.30140    0.43930    1.000
    H40      H        0.55530    0.33830    0.40710    1.000
    C54      C        0.70960    0.11640    0.47260    1.000
    C55      C        0.71460    0.04720    0.51200    1.000
    H41      H        0.67410    0.04040    0.54250    1.000
    C56      C        0.77850    0.98900    0.50660    1.000
    H42      H        0.77970    0.94270    0.53280    1.000
    C57      C        0.84070    0.99830    0.46280    1.000
    H43      H        0.88290    0.95800    0.45900    1.000
    C58      C        0.84000    0.06880    0.42420    1.000
    C59      C        0.77420    0.12690    0.42890    1.000
    H44      H        0.77300    0.17330    0.40280    1.000
    C60      C        0.90830    0.07680    0.37934    1.000
    C61      C        0.00280    0.12850    0.31697    1.000
    C62      C        0.05880    0.19110    0.28705    1.000
    C63      C        0.04270    0.22170    0.22790    1.000
    H45      H        0.99610    0.20310    0.20590    1.000
    C64      C        0.09810    0.28070    0.20260    1.000
    H46      H        0.08910    0.30030    0.16300    1.000
    C65      C        0.16630    0.31030    0.23610    1.000
    H47      H        0.20260    0.34940    0.21860    1.000
    C66      C        0.18100    0.28200    0.29570    1.000
    C67      C        0.12590    0.22070    0.31970    1.000
    H48      H        0.13560    0.19990    0.35900    1.000
    C68      C        0.25320    0.31230    0.33280    1.000
    C69      C        0.27890    0.26930    0.38540    1.000
    H49      H        0.25420    0.21800    0.39550    1.000
    C70      C        0.34060    0.30270    0.42240    1.000
    H50      H        0.35660    0.27240    0.45700    1.000
    C71      C        0.36020    0.41500    0.35890    1.000
    H51      H        0.38970    0.46360    0.34840    1.000
    C72      C        0.29790    0.38580    0.31880    1.000
    H52      H        0.28620    0.41520    0.28290    1.000
    N13      N        0.52320    0.31260    0.49193    1.000
    N14      N        0.94770    0.01290    0.35443    1.000
    N15      N        0.00780    0.04580    0.31505    1.000
    N16      N        0.94120    0.15010    0.35694    1.000
    N17      N        0.91840    0.23270    0.37480    1.000
    N18      N        0.37950    0.37680    0.41150    1.000
    H53      H        0.96660    0.26120    0.37080    1.000
    H54      H        0.88500    0.24190    0.34100    1.000
    C73      C        0.46290    0.74400    0.03620    1.000
    H55      H        0.49410    0.73970    0.07220    1.000
    C74      C        0.40450    0.80870    0.03160    1.000
    H56      H        0.39690    0.84570    0.06420    1.000
    C75      C        0.35680    0.81850    0.97810    1.000
    C76      C        0.37530    0.76170    0.93020    1.000
    H57      H        0.34800    0.76660    0.89270    1.000
    C77      C        0.43410    0.69860    0.93930    1.000
    H58      H        0.44470    0.66170    0.90710    1.000
    C78      C        0.29040    0.88360    0.97260    1.000
    C79      C        0.28540    0.95280    0.01200    1.000
    H59      H        0.32590    0.95960    0.04250    1.000
    C80      C        0.22150    0.01100    0.00660    1.000
    H60      H        0.22030    0.05730    0.03280    1.000
    C81      C        0.15930    0.00170    0.96280    1.000
    H61      H        0.11710    0.04200    0.95900    1.000
    C82      C        0.16000    0.93120    0.92420    1.000
    C83      C        0.22580    0.87310    0.92890    1.000
    H62      H        0.22700    0.82670    0.90280    1.000
    C84      C        0.09170    0.92320    0.87934    1.000
    C85      C        0.99720    0.87150    0.81697    1.000
    C86      C        0.94120    0.80890    0.78705    1.000
    C87      C        0.95730    0.77830    0.72790    1.000
    H63      H        0.00390    0.79690    0.70590    1.000
    C88      C        0.90190    0.71930    0.70260    1.000
    H64      H        0.91090    0.69970    0.66300    1.000
    C89      C        0.83370    0.68970    0.73610    1.000
    H65      H        0.79740    0.65060    0.71860    1.000
    C90      C        0.81900    0.71800    0.79570    1.000
    C91      C        0.87410    0.77930    0.81970    1.000
    H66      H        0.86440    0.80010    0.85900    1.000
    C92      C        0.74680    0.68770    0.83280    1.000
    C93      C        0.72110    0.73070    0.88540    1.000
    H67      H        0.74580    0.78200    0.89550    1.000
    C94      C        0.65940    0.69730    0.92240    1.000
    H68      H        0.64340    0.72760    0.95700    1.000
    C95      C        0.63980    0.58500    0.85890    1.000
    H69      H        0.61030    0.53640    0.84840    1.000
    C96      C        0.70210    0.61420    0.81880    1.000
    H70      H        0.71380    0.58480    0.78290    1.000
    N19      N        0.47680    0.68740    0.99193    1.000
    N20      N        0.05230    0.98710    0.85443    1.000
    N21      N        0.99220    0.95420    0.81505    1.000
    N22      N        0.05880    0.84990    0.85694    1.000
    N23      N        0.08160    0.76730    0.87480    1.000
    N24      N        0.62050    0.62320    0.91150    1.000
    H71      H        0.03340    0.73880    0.87080    1.000
    H72      H        0.11500    0.75810    0.84100    1.000
    C97      C        0.74400    0.46290    0.96380    1.000
    H73      H        0.73970    0.49410    0.92780    1.000
    C98      C        0.80870    0.40450    0.96840    1.000
    H74      H        0.84570    0.39690    0.93580    1.000
    C99      C        0.81850    0.35680    0.02190    1.000
    C100     C        0.76170    0.37530    0.06980    1.000
    H75      H        0.76660    0.34800    0.10730    1.000
    C101     C        0.69860    0.43410    0.06070    1.000
    H76      H        0.66170    0.44470    0.09290    1.000
    C102     C        0.88360    0.29040    0.02740    1.000
    C103     C        0.95280    0.28540    0.98800    1.000
    H77      H        0.95960    0.32590    0.95750    1.000
    C104     C        0.01100    0.22150    0.99340    1.000
    H78      H        0.05730    0.22030    0.96720    1.000
    C105     C        0.00170    0.15930    0.03720    1.000
    H79      H        0.04200    0.11710    0.04100    1.000
    C106     C        0.93120    0.16000    0.07580    1.000
    C107     C        0.87310    0.22580    0.07110    1.000
    H80      H        0.82670    0.22700    0.09720    1.000
    C108     C        0.92320    0.09170    0.12066    1.000
    C109     C        0.87150    0.99720    0.18303    1.000
    C110     C        0.80890    0.94120    0.21295    1.000
    C111     C        0.77830    0.95730    0.27210    1.000
    H81      H        0.79690    0.00390    0.29410    1.000
    C112     C        0.71930    0.90190    0.29740    1.000
    H82      H        0.69970    0.91090    0.33700    1.000
    C113     C        0.68970    0.83370    0.26390    1.000
    H83      H        0.65060    0.79740    0.28140    1.000
    C114     C        0.71800    0.81900    0.20430    1.000
    C115     C        0.77930    0.87410    0.18030    1.000
    H84      H        0.80010    0.86440    0.14100    1.000
    C116     C        0.68770    0.74680    0.16720    1.000
    C117     C        0.73070    0.72110    0.11460    1.000
    H85      H        0.78200    0.74580    0.10450    1.000
    C118     C        0.69730    0.65940    0.07760    1.000
    H86      H        0.72760    0.64340    0.04300    1.000
    C119     C        0.58500    0.63980    0.14110    1.000
    H87      H        0.53640    0.61030    0.15160    1.000
    C120     C        0.61420    0.70210    0.18120    1.000
    H88      H        0.58480    0.71380    0.21710    1.000
    N25      N        0.68740    0.47680    0.00807    1.000
    N26      N        0.98710    0.05230    0.14557    1.000
    N27      N        0.95420    0.99220    0.18495    1.000
    N28      N        0.84990    0.05880    0.14306    1.000
    N29      N        0.76730    0.08160    0.12520    1.000
    N30      N        0.62320    0.62050    0.08850    1.000
    H89      H        0.73880    0.03340    0.12920    1.000
    H90      H        0.75810    0.11500    0.15900    1.000
    C121     C        0.25600    0.53710    0.46380    1.000
    H91      H        0.26030    0.50590    0.42780    1.000
    C122     C        0.19130    0.59550    0.46840    1.000
    H92      H        0.15430    0.60310    0.43580    1.000
    C123     C        0.18150    0.64320    0.52190    1.000
    C124     C        0.23830    0.62470    0.56980    1.000
    H93      H        0.23340    0.65200    0.60730    1.000
    C125     C        0.30140    0.56590    0.56070    1.000
    H94      H        0.33830    0.55530    0.59290    1.000
    C126     C        0.11640    0.70960    0.52740    1.000
    C127     C        0.04720    0.71460    0.48800    1.000
    H95      H        0.04040    0.67410    0.45750    1.000
    C128     C        0.98900    0.77850    0.49340    1.000
    H96      H        0.94270    0.77970    0.46720    1.000
    C129     C        0.99830    0.84070    0.53720    1.000
    H97      H        0.95800    0.88290    0.54100    1.000
    C130     C        0.06880    0.84000    0.57580    1.000
    C131     C        0.12690    0.77420    0.57110    1.000
    H98      H        0.17330    0.77300    0.59720    1.000
    C132     C        0.07680    0.90830    0.62066    1.000
    C133     C        0.12850    0.00280    0.68303    1.000
    C134     C        0.19110    0.05880    0.71295    1.000
    C135     C        0.22170    0.04270    0.77210    1.000
    H99      H        0.20310    0.99610    0.79410    1.000
    C136     C        0.28070    0.09810    0.79740    1.000
    H100     H        0.30030    0.08910    0.83700    1.000
    C137     C        0.31030    0.16630    0.76390    1.000
    H101     H        0.34940    0.20260    0.78140    1.000
    C138     C        0.28200    0.18100    0.70430    1.000
    C139     C        0.22070    0.12590    0.68030    1.000
    H102     H        0.19990    0.13560    0.64100    1.000
    C140     C        0.31230    0.25320    0.66720    1.000
    C141     C        0.26930    0.27890    0.61460    1.000
    H103     H        0.21800    0.25420    0.60450    1.000
    C142     C        0.30270    0.34060    0.57760    1.000
    H104     H        0.27240    0.35660    0.54300    1.000
    C143     C        0.41500    0.36020    0.64110    1.000
    H105     H        0.46360    0.38970    0.65160    1.000
    C144     C        0.38580    0.29790    0.68120    1.000
    H106     H        0.41520    0.28620    0.71710    1.000
    N31      N        0.31260    0.52320    0.50807    1.000
    N32      N        0.01290    0.94770    0.64557    1.000
    N33      N        0.04580    0.00780    0.68495    1.000
    N34      N        0.15010    0.94120    0.64306    1.000
    N35      N        0.23270    0.91840    0.62520    1.000
    N36      N        0.37680    0.37950    0.58850    1.000
    H107     H        0.26120    0.96660    0.62920    1.000
    H108     H        0.24190    0.88500    0.65900    1.000
    C145     C        0.96290    0.75600    0.21380    1.000
    H109     H        0.99410    0.76030    0.17780    1.000
    C146     C        0.90450    0.69130    0.21840    1.000
    H110     H        0.89690    0.65430    0.18580    1.000
    C147     C        0.85680    0.68150    0.27190    1.000
    C148     C        0.87530    0.73830    0.31980    1.000
    H111     H        0.84800    0.73340    0.35730    1.000
    C149     C        0.93410    0.80140    0.31070    1.000
    H112     H        0.94470    0.83830    0.34290    1.000
    C150     C        0.79040    0.61640    0.27740    1.000
    C151     C        0.78540    0.54720    0.23800    1.000
    H113     H        0.82590    0.54040    0.20750    1.000
    C152     C        0.72150    0.48900    0.24340    1.000
    H114     H        0.72030    0.44270    0.21720    1.000
    C153     C        0.65930    0.49830    0.28720    1.000
    H115     H        0.61710    0.45800    0.29100    1.000
    C154     C        0.66000    0.56880    0.32580    1.000
    C155     C        0.72580    0.62690    0.32110    1.000
    H116     H        0.72700    0.67330    0.34720    1.000
    C156     C        0.59170    0.57680    0.37066    1.000
    C157     C        0.49720    0.62850    0.43303    1.000
    C158     C        0.44120    0.69110    0.46295    1.000
    C159     C        0.45730    0.72170    0.52210    1.000
    H117     H        0.50390    0.70310    0.54410    1.000
    C160     C        0.40190    0.78070    0.54740    1.000
    H118     H        0.41090    0.80030    0.58700    1.000
    C161     C        0.33370    0.81030    0.51390    1.000
    H119     H        0.29740    0.84940    0.53140    1.000
    C162     C        0.31900    0.78200    0.45430    1.000
    C163     C        0.37410    0.72070    0.43030    1.000
    H120     H        0.36440    0.69990    0.39100    1.000
    C164     C        0.24680    0.81230    0.41720    1.000
    C165     C        0.22110    0.76930    0.36460    1.000
    H121     H        0.24580    0.71800    0.35450    1.000
    C166     C        0.15940    0.80270    0.32760    1.000
    H122     H        0.14340    0.77240    0.29300    1.000
    C167     C        0.13980    0.91500    0.39110    1.000
    H123     H        0.11030    0.96360    0.40160    1.000
    C168     C        0.20210    0.88580    0.43120    1.000
    H124     H        0.21380    0.91520    0.46710    1.000
    N37      N        0.97680    0.81260    0.25807    1.000
    N38      N        0.55230    0.51290    0.39557    1.000
    N39      N        0.49220    0.54580    0.43495    1.000
    N40      N        0.55880    0.65010    0.39306    1.000
    N41      N        0.58160    0.73270    0.37520    1.000
    N42      N        0.12050    0.87680    0.33850    1.000
    H125     H        0.53340    0.76120    0.37920    1.000
    H126     H        0.61500    0.74190    0.40900    1.000
    C169     C        0.03710    0.24400    0.71380    1.000
    H127     H        0.00590    0.23970    0.67780    1.000
    C170     C        0.09550    0.30870    0.71840    1.000
    H128     H        0.10310    0.34570    0.68580    1.000
    C171     C        0.14320    0.31850    0.77190    1.000
    C172     C        0.12470    0.26170    0.81980    1.000
    H129     H        0.15200    0.26660    0.85730    1.000
    C173     C        0.06590    0.19860    0.81070    1.000
    H130     H        0.05530    0.16170    0.84290    1.000
    C174     C        0.20960    0.38360    0.77740    1.000
    C175     C        0.21460    0.45280    0.73800    1.000
    H131     H        0.17410    0.45960    0.70750    1.000
    C176     C        0.27850    0.51100    0.74340    1.000
    H132     H        0.27970    0.55730    0.71720    1.000
    C177     C        0.34070    0.50170    0.78720    1.000
    H133     H        0.38290    0.54200    0.79100    1.000
    C178     C        0.34000    0.43120    0.82580    1.000
    C179     C        0.27420    0.37310    0.82110    1.000
    H134     H        0.27300    0.32670    0.84720    1.000
    C180     C        0.40830    0.42320    0.87066    1.000
    C181     C        0.50280    0.37150    0.93303    1.000
    C182     C        0.55880    0.30890    0.96295    1.000
    C183     C        0.54270    0.27830    0.02210    1.000
    H135     H        0.49610    0.29690    0.04410    1.000
    C184     C        0.59810    0.21930    0.04740    1.000
    H136     H        0.58910    0.19970    0.08700    1.000
    C185     C        0.66630    0.18970    0.01390    1.000
    H137     H        0.70260    0.15060    0.03140    1.000
    C186     C        0.68100    0.21800    0.95430    1.000
    C187     C        0.62590    0.27930    0.93030    1.000
    H138     H        0.63560    0.30010    0.89100    1.000
    C188     C        0.75320    0.18770    0.91720    1.000
    C189     C        0.77890    0.23070    0.86460    1.000
    H139     H        0.75420    0.28200    0.85450    1.000
    C190     C        0.84060    0.19730    0.82760    1.000
    H140     H        0.85660    0.22760    0.79300    1.000
    C191     C        0.86020    0.08500    0.89110    1.000
    H141     H        0.88970    0.03640    0.90160    1.000
    C192     C        0.79790    0.11420    0.93120    1.000
    H142     H        0.78620    0.08480    0.96710    1.000
    N43      N        0.02320    0.18740    0.75807    1.000
    N44      N        0.44770    0.48710    0.89557    1.000
    N45      N        0.50780    0.45420    0.93495    1.000
    N46      N        0.44120    0.34990    0.89306    1.000
    N47      N        0.41840    0.26730    0.87520    1.000
    N48      N        0.87950    0.12320    0.83850    1.000
    H143     H        0.46660    0.23880    0.87920    1.000
    H144     H        0.38500    0.25810    0.90900    1.000
    Cd1      Cd       0.44092    0.44092    0.50000    1.000
    Cd2      Cd       0.55908    0.55908    0.00000    1.000
    Cd3      Cd       0.05908    0.94092    0.25000    1.000
    Cd4      Cd       0.94092    0.05908    0.75000    1.000
