# CIF file generated by openbabel 3.1.0, see https://openbabel.org
data_I
_chemical_name_common 'image0'
_cell_length_a 25.887
_cell_length_b 25.887
_cell_length_c 6.821
_cell_angle_alpha 90
_cell_angle_beta 90
_cell_angle_gamma 120
_space_group_name_H-M_alt 'P 1'
_space_group_name_Hall 'P 1'
loop_
    _symmetry_equiv_pos_as_xyz
    x,y,z
loop_
    _atom_site_label
    _atom_site_type_symbol
    _atom_site_fract_x
    _atom_site_fract_y
    _atom_site_fract_z
    _atom_site_occupancy
    Zn1      Zn       0.38360    0.35240    0.13550    1.000
    O1       O        0.32710    0.29440    0.36180    1.000
    O2       O        0.30330    0.22830    0.60770    1.000
    O3       O        0.35420    0.27380    0.00260    1.000
    C1       C        0.31600    0.24470    0.42950    1.000
    C2       C        0.32590    0.20640    0.28330    1.000
    C3       C        0.34120    0.22020    0.09390    1.000
    C4       C        0.34930    0.18070    0.97230    1.000
    H1       H        0.36370    0.19400    0.84700    1.000
    Zn2      Zn       0.05027    0.68573    0.46883    1.000
    O4       O        0.99377    0.62773    0.69513    1.000
    O5       O        0.96997    0.56163    0.94103    1.000
    O6       O        0.02087    0.60713    0.33593    1.000
    C5       C        0.98267    0.57803    0.76283    1.000
    C6       C        0.99257    0.53973    0.61663    1.000
    C7       C        0.00787    0.55353    0.42723    1.000
    C8       C        0.01597    0.51403    0.30563    1.000
    H2       H        0.03037    0.52733    0.18033    1.000
    Zn3      Zn       0.71693    0.01907    0.80217    1.000
    O7       O        0.66043    0.96107    0.02847    1.000
    O8       O        0.63663    0.89497    0.27437    1.000
    O9       O        0.68753    0.94047    0.66927    1.000
    C9       C        0.64933    0.91137    0.09617    1.000
    C10      C        0.65923    0.87307    0.94997    1.000
    C11      C        0.67453    0.88687    0.76057    1.000
    C12      C        0.68263    0.84737    0.63897    1.000
    H3       H        0.69703    0.86067    0.51367    1.000
    Zn4      Zn       0.64760    0.03120    0.13550    1.000
    O10      O        0.70560    0.03270    0.36180    1.000
    O11      O        0.77170    0.07500    0.60770    1.000
    O12      O        0.72620    0.08040    0.00260    1.000
    C13      C        0.75530    0.07130    0.42950    1.000
    C14      C        0.79360    0.11950    0.28330    1.000
    C15      C        0.77980    0.12100    0.09390    1.000
    C16      C        0.81930    0.16860    0.97230    1.000
    H4       H        0.80600    0.16970    0.84700    1.000
    Zn5      Zn       0.31427    0.36453    0.46883    1.000
    O13      O        0.37227    0.36603    0.69513    1.000
    O14      O        0.43837    0.40833    0.94103    1.000
    O15      O        0.39287    0.41373    0.33593    1.000
    C17      C        0.42197    0.40463    0.76283    1.000
    C18      C        0.46027    0.45283    0.61663    1.000
    C19      C        0.44647    0.45433    0.42723    1.000
    C20      C        0.48597    0.50193    0.30563    1.000
    H5       H        0.47267    0.50303    0.18033    1.000
    Zn6      Zn       0.98093    0.69787    0.80217    1.000
    O16      O        0.03893    0.69937    0.02847    1.000
    O17      O        0.10503    0.74167    0.27437    1.000
    O18      O        0.05953    0.74707    0.66927    1.000
    C21      C        0.08863    0.73797    0.09617    1.000
    C22      C        0.12693    0.78617    0.94997    1.000
    C23      C        0.11313    0.78767    0.76057    1.000
    C24      C        0.15263    0.83527    0.63897    1.000
    H6       H        0.13933    0.83637    0.51367    1.000
    Zn7      Zn       0.96880    0.61640    0.13550    1.000
    O19      O        0.96730    0.67290    0.36180    1.000
    O20      O        0.92500    0.69670    0.60770    1.000
    O21      O        0.91960    0.64580    0.00260    1.000
    C25      C        0.92870    0.68400    0.42950    1.000
    C26      C        0.88050    0.67410    0.28330    1.000
    C27      C        0.87900    0.65880    0.09390    1.000
    C28      C        0.83140    0.65070    0.97230    1.000
    H7       H        0.83030    0.63630    0.84700    1.000
    Zn8      Zn       0.63547    0.94973    0.46883    1.000
    O22      O        0.63397    0.00623    0.69513    1.000
    O23      O        0.59167    0.03003    0.94103    1.000
    O24      O        0.58627    0.97913    0.33593    1.000
    C29      C        0.59537    0.01733    0.76283    1.000
    C30      C        0.54717    0.00743    0.61663    1.000
    C31      C        0.54567    0.99213    0.42723    1.000
    C32      C        0.49807    0.98403    0.30563    1.000
    H8       H        0.49697    0.96963    0.18033    1.000
    Zn9      Zn       0.30213    0.28307    0.80217    1.000
    O25      O        0.30063    0.33957    0.02847    1.000
    O26      O        0.25833    0.36337    0.27437    1.000
    O27      O        0.25293    0.31247    0.66927    1.000
    C33      C        0.26203    0.35067    0.09617    1.000
    C34      C        0.21383    0.34077    0.94997    1.000
    C35      C        0.21233    0.32547    0.76057    1.000
    C36      C        0.16473    0.31737    0.63897    1.000
    H9       H        0.16363    0.30297    0.51367    1.000
    Zn10     Zn       0.61640    0.64760    0.86450    1.000
    O28      O        0.67290    0.70560    0.63820    1.000
    O29      O        0.69670    0.77170    0.39230    1.000
    O30      O        0.64580    0.72620    0.99740    1.000
    C37      C        0.68400    0.75530    0.57050    1.000
    C38      C        0.67410    0.79360    0.71670    1.000
    C39      C        0.65880    0.77980    0.90610    1.000
    C40      C        0.65070    0.81930    0.02770    1.000
    H10      H        0.63630    0.80600    0.15300    1.000
    Zn11     Zn       0.28307    0.98093    0.19783    1.000
    O31      O        0.33957    0.03893    0.97153    1.000
    O32      O        0.36337    0.10503    0.72563    1.000
    O33      O        0.31247    0.05953    0.33073    1.000
    C41      C        0.35067    0.08863    0.90383    1.000
    C42      C        0.34077    0.12693    0.05003    1.000
    C43      C        0.32547    0.11313    0.23943    1.000
    C44      C        0.31737    0.15263    0.36103    1.000
    H11      H        0.30297    0.13933    0.48633    1.000
    Zn12     Zn       0.94973    0.31427    0.53117    1.000
    O34      O        0.00623    0.37227    0.30487    1.000
    O35      O        0.03003    0.43837    0.05897    1.000
    O36      O        0.97913    0.39287    0.66407    1.000
    C45      C        0.01733    0.42197    0.23717    1.000
    C46      C        0.00743    0.46027    0.38337    1.000
    C47      C        0.99213    0.44647    0.57277    1.000
    C48      C        0.98403    0.48597    0.69437    1.000
    H12      H        0.96963    0.47267    0.81967    1.000
    Zn13     Zn       0.35240    0.96880    0.86450    1.000
    O37      O        0.29440    0.96730    0.63820    1.000
    O38      O        0.22830    0.92500    0.39230    1.000
    O39      O        0.27380    0.91960    0.99740    1.000
    C49      C        0.24470    0.92870    0.57050    1.000
    C50      C        0.20640    0.88050    0.71670    1.000
    C51      C        0.22020    0.87900    0.90610    1.000
    C52      C        0.18070    0.83140    0.02770    1.000
    H13      H        0.19400    0.83030    0.15300    1.000
    Zn14     Zn       0.01907    0.30213    0.19783    1.000
    O40      O        0.96107    0.30063    0.97153    1.000
    O41      O        0.89497    0.25833    0.72563    1.000
    O42      O        0.94047    0.25293    0.33073    1.000
    C53      C        0.91137    0.26203    0.90383    1.000
    C54      C        0.87307    0.21383    0.05003    1.000
    C55      C        0.88687    0.21233    0.23943    1.000
    C56      C        0.84737    0.16473    0.36103    1.000
    H14      H        0.86067    0.16363    0.48633    1.000
    Zn15     Zn       0.68573    0.63547    0.53117    1.000
    O43      O        0.62773    0.63397    0.30487    1.000
    O44      O        0.56163    0.59167    0.05897    1.000
    O45      O        0.60713    0.58627    0.66407    1.000
    C57      C        0.57803    0.59537    0.23717    1.000
    C58      C        0.53973    0.54717    0.38337    1.000
    C59      C        0.55353    0.54567    0.57277    1.000
    C60      C        0.51403    0.49807    0.69437    1.000
    H15      H        0.52733    0.49697    0.81967    1.000
    Zn16     Zn       0.03120    0.38360    0.86450    1.000
    O46      O        0.03270    0.32710    0.63820    1.000
    O47      O        0.07500    0.30330    0.39230    1.000
    O48      O        0.08040    0.35420    0.99740    1.000
    C61      C        0.07130    0.31600    0.57050    1.000
    C62      C        0.11950    0.32590    0.71670    1.000
    C63      C        0.12100    0.34120    0.90610    1.000
    C64      C        0.16860    0.34930    0.02770    1.000
    H16      H        0.16970    0.36370    0.15300    1.000
    Zn17     Zn       0.69787    0.71693    0.19783    1.000
    O49      O        0.69937    0.66043    0.97153    1.000
    O50      O        0.74167    0.63663    0.72563    1.000
    O51      O        0.74707    0.68753    0.33073    1.000
    C65      C        0.73797    0.64933    0.90383    1.000
    C66      C        0.78617    0.65923    0.05003    1.000
    C67      C        0.78767    0.67453    0.23943    1.000
    C68      C        0.83527    0.68263    0.36103    1.000
    H17      H        0.83637    0.69703    0.48633    1.000
    Zn18     Zn       0.36453    0.05027    0.53117    1.000
    O52      O        0.36603    0.99377    0.30487    1.000
    O53      O        0.40833    0.96997    0.05897    1.000
    O54      O        0.41373    0.02087    0.66407    1.000
    C69      C        0.40463    0.98267    0.23717    1.000
    C70      C        0.45283    0.99257    0.38337    1.000
    C71      C        0.45433    0.00787    0.57277    1.000
    C72      C        0.50193    0.01597    0.69437    1.000
    H18      H        0.50303    0.03037    0.81967    1.000
