# CIF file generated by openbabel 3.1.0, see https://openbabel.org
data_I
_chemical_name_common 'image0'
_cell_length_a 10.3753
_cell_length_b 12.4036
_cell_length_c 15.764
_cell_angle_alpha 90
_cell_angle_beta 90
_cell_angle_gamma 90
_space_group_name_H-M_alt 'P 1'
_space_group_name_Hall 'P 1'
loop_
    _symmetry_equiv_pos_as_xyz
    x,y,z
loop_
    _atom_site_label
    _atom_site_type_symbol
    _atom_site_fract_x
    _atom_site_fract_y
    _atom_site_fract_z
    _atom_site_occupancy
    Zn1      Zn       0.05568    0.73625    0.40018    1.000
    Zn2      Zn       0.75326    0.08277    0.08860    1.000
    Zn3      Zn       0.75932    0.40015    0.21151    1.000
    P1       P        0.53920    0.93819    0.00697    1.000
    P2       P        0.71020    0.32692    0.01973    1.000
    P3       P        0.76456    0.16754    0.27920    1.000
    P4       P        0.97952    0.53337    0.29660    1.000
    O1       O        0.63570    0.95740    0.07844    1.000
    O2       O        0.40400    0.97023    0.03112    1.000
    O3       O        0.55130    0.82430    0.97332    1.000
    O4       O        0.70400    0.39960    0.09590    1.000
    O5       O        0.68290    0.21040    0.03900    1.000
    O6       O        0.82470    0.34830    0.96610    1.000
    O7       O        0.83300    0.27198    0.25820    1.000
    O8       O        0.77830    0.08467    0.20960    1.000
    O9       O        0.62600    0.18343    0.30620    1.000
    O10      O        0.89280    0.51441    0.22022    1.000
    O11      O        0.12030    0.53551    0.27621    1.000
    O12      O        0.93670    0.63234    0.34652    1.000
    H1       H        0.55930    0.01420    0.95560    1.000
    H2       H        0.62540    0.36130    0.97530    1.000
    H3       H        0.83210    0.12680    0.34870    1.000
    H4       H        0.95750    0.45100    0.35370    1.000
    Zn4      Zn       0.94432    0.26375    0.90018    1.000
    Zn5      Zn       0.24674    0.91723    0.58860    1.000
    Zn6      Zn       0.24068    0.59985    0.71151    1.000
    P5       P        0.46080    0.06181    0.50697    1.000
    P6       P        0.28980    0.67308    0.51973    1.000
    P7       P        0.23544    0.83246    0.77920    1.000
    P8       P        0.02048    0.46663    0.79660    1.000
    O13      O        0.36430    0.04260    0.57844    1.000
    O14      O        0.59600    0.02977    0.53112    1.000
    O15      O        0.44870    0.17570    0.47332    1.000
    O16      O        0.29600    0.60040    0.59590    1.000
    O17      O        0.31710    0.78960    0.53900    1.000
    O18      O        0.17530    0.65170    0.46610    1.000
    O19      O        0.16700    0.72802    0.75820    1.000
    O20      O        0.22170    0.91533    0.70960    1.000
    O21      O        0.37400    0.81657    0.80620    1.000
    O22      O        0.10720    0.48559    0.72022    1.000
    O23      O        0.87970    0.46449    0.77621    1.000
    O24      O        0.06330    0.36766    0.84652    1.000
    H5       H        0.44070    0.98580    0.45560    1.000
    H6       H        0.37460    0.63870    0.47530    1.000
    H7       H        0.16790    0.87320    0.84870    1.000
    H8       H        0.04250    0.54900    0.85370    1.000
    Zn7      Zn       0.55568    0.26375    0.40018    1.000
    Zn8      Zn       0.25326    0.91723    0.08860    1.000
    Zn9      Zn       0.25932    0.59985    0.21151    1.000
    P9       P        0.03920    0.06181    0.00697    1.000
    P10      P        0.21020    0.67308    0.01973    1.000
    P11      P        0.26456    0.83246    0.27920    1.000
    P12      P        0.47952    0.46663    0.29660    1.000
    O25      O        0.13570    0.04260    0.07844    1.000
    O26      O        0.90400    0.02977    0.03112    1.000
    O27      O        0.05130    0.17570    0.97332    1.000
    O28      O        0.20400    0.60040    0.09590    1.000
    O29      O        0.18290    0.78960    0.03900    1.000
    O30      O        0.32470    0.65170    0.96610    1.000
    O31      O        0.33300    0.72802    0.25820    1.000
    O32      O        0.27830    0.91533    0.20960    1.000
    O33      O        0.12600    0.81657    0.30620    1.000
    O34      O        0.39280    0.48559    0.22022    1.000
    O35      O        0.62030    0.46449    0.27621    1.000
    O36      O        0.43670    0.36766    0.34652    1.000
    H9       H        0.05930    0.98580    0.95560    1.000
    H10      H        0.12540    0.63870    0.97530    1.000
    H11      H        0.33210    0.87320    0.34870    1.000
    H12      H        0.45750    0.54900    0.35370    1.000
    Zn10     Zn       0.44432    0.73625    0.90018    1.000
    Zn11     Zn       0.74674    0.08277    0.58860    1.000
    Zn12     Zn       0.74068    0.40015    0.71151    1.000
    P13      P        0.96080    0.93819    0.50697    1.000
    P14      P        0.78980    0.32692    0.51973    1.000
    P15      P        0.73544    0.16754    0.77920    1.000
    P16      P        0.52048    0.53337    0.79660    1.000
    O37      O        0.86430    0.95740    0.57844    1.000
    O38      O        0.09600    0.97023    0.53112    1.000
    O39      O        0.94870    0.82430    0.47332    1.000
    O40      O        0.79600    0.39960    0.59590    1.000
    O41      O        0.81710    0.21040    0.53900    1.000
    O42      O        0.67530    0.34830    0.46610    1.000
    O43      O        0.66700    0.27198    0.75820    1.000
    O44      O        0.72170    0.08467    0.70960    1.000
    O45      O        0.87400    0.18343    0.80620    1.000
    O46      O        0.60720    0.51441    0.72022    1.000
    O47      O        0.37970    0.53551    0.77621    1.000
    O48      O        0.56330    0.63234    0.84652    1.000
    H13      H        0.94070    0.01420    0.45560    1.000
    H14      H        0.87460    0.36130    0.47530    1.000
    H15      H        0.66790    0.12680    0.84870    1.000
    H16      H        0.54250    0.45100    0.85370    1.000
