# CIF file generated by openbabel 3.1.0, see https://openbabel.org
data_I
_chemical_name_common 'image0'
_cell_length_a 29.6688
_cell_length_b 29.6688
_cell_length_c 72.7125
_cell_angle_alpha 90
_cell_angle_beta 90
_cell_angle_gamma 120
_space_group_name_H-M_alt 'P 1'
_space_group_name_Hall 'P 1'
loop_
    _symmetry_equiv_pos_as_xyz
    x,y,z
loop_
    _atom_site_label
    _atom_site_type_symbol
    _atom_site_fract_x
    _atom_site_fract_y
    _atom_site_fract_z
    _atom_site_occupancy
    C1       C        0.41170    0.58280    0.33361    1.000
    C2       C        0.46140    0.60890    0.34110    1.000
    C3       C        0.47810    0.58280    0.35260    1.000
    C4       C        0.44510    0.53040    0.35660    1.000
    C5       C        0.39540    0.50430    0.34910    1.000
    C6       C        0.37870    0.53050    0.33760    1.000
    C7       C        0.39280    0.61160    0.32070    1.000
    C8       C        0.58180    0.41000    0.41834    1.000
    C9       C        0.60840    0.45960    0.41080    1.000
    C10      C        0.58230    0.47710    0.39960    1.000
    C11      C        0.52960    0.44490    0.39600    1.000
    C12      C        0.50300    0.39530    0.40350    1.000
    C13      C        0.52910    0.37780    0.41470    1.000
    C14      C        0.35570    0.44650    0.35340    1.000
    C15      C        0.82990    0.91630    0.16530    1.000
    C16      C        0.82990    0.92340    0.18420    1.000
    C17      C        0.78310    0.90510    0.19350    1.000
    C18      C        0.73630    0.87980    0.18400    1.000
    C19      C        0.73620    0.87260    0.16510    1.000
    C20      C        0.78300    0.89090    0.15570    1.000
    C21      C        0.37600    0.41510    0.34880    1.000
    C22      C        0.49310    0.74890    0.25090    1.000
    C23      C        0.54450    0.77250    0.25680    1.000
    C24      C        0.58480    0.79630    0.24420    1.000
    C25      C        0.57380    0.79670    0.22560    1.000
    C26      C        0.52240    0.77310    0.21970    1.000
    C27      C        0.48200    0.74920    0.23240    1.000
    C28      C        0.30900    0.43500    0.34430    1.000
    C29      C        0.34300    0.44060    0.37210    1.000
    C30      C        0.52910    0.61580    0.35900    1.000
    C31      C        0.61260    0.39230    0.43080    1.000
    C32      C        0.44370    0.36020    0.39890    1.000
    C33      C        0.42370    0.31140    0.40770    1.000
    C34      C        0.43780    0.35360    0.37990    1.000
    C35      C        0.41650    0.38460    0.40430    1.000
    C36      C        0.61630    0.52830    0.39340    1.000
    C37      C        0.60760    0.63170    0.37330    1.000
    C38      C        0.63910    0.69240    0.37220    1.000
    C39      C        0.68580    0.72200    0.38340    1.000
    C40      C        0.70390    0.69250    0.39370    1.000
    C41      C        0.69180    0.63870    0.38730    1.000
    C42      C        0.63610    0.60640    0.37550    1.000
    C43      C        0.88130    0.93640    0.15460    1.000
    C44      C        0.68440    0.84290    0.15390    1.000
    C45      C        0.64330    0.85100    0.15800    1.000
    C46      C        0.66400    0.78900    0.15440    1.000
    C47      C        0.69600    0.85600    0.13500    1.000
    C48      C        0.78830    0.91330    0.21270    1.000
    C49      C        0.44690    0.72200    0.26430    1.000
    C50      C        0.50400    0.77030    0.19930    1.000
    C51      C        0.50900    0.81900    0.19460    1.000
    C52      C        0.45000    0.73330    0.19740    1.000
    C53      C        0.53030    0.75600    0.18660    1.000
    C54      C        0.63520    0.81760    0.25210    1.000
    C55      C        0.76500    0.87220    0.24270    1.000
    C56      C        0.82000    0.88010    0.24960    1.000
    C57      C        0.82050    0.84910    0.26570    1.000
    C58      C        0.78000    0.83630    0.27910    1.000
    C59      C        0.72700    0.83090    0.27390    1.000
    C60      C        0.72310    0.82930    0.25120    1.000
    Cl1      Cl       0.54330    0.48440    0.34430    1.000
    Cl2      Cl       0.67090    0.74700    0.20850    1.000
    Mn1      Mn       0.53270    0.52240    0.36888    1.000
    Mn2      Mn       0.68210    0.82500    0.21518    1.000
    N1       N        0.56130    0.59940    0.36480    1.000
    N2       N        0.60160    0.55370    0.38190    1.000
    N3       N        0.75680    0.87260    0.22410    1.000
    N4       N        0.67340    0.81450    0.24320    1.000
    O1       O        0.42530    0.66080    0.31470    1.000
    O2       O        0.34130    0.58370    0.31600    1.000
    O3       O        0.45900    0.49990    0.36870    1.000
    O4       O        0.65880    0.42400    0.43730    1.000
    O5       O        0.58080    0.34030    0.43250    1.000
    O6       O        0.50020    0.46140    0.38370    1.000
    O7       O        0.92940    0.95960    0.16230    1.000
    O8       O        0.87930    0.93070    0.13610    1.000
    O9       O        0.68590    0.85990    0.19300    1.000
    O10      O        0.45430    0.72470    0.28220    1.000
    O11      O        0.40130    0.69630    0.25580    1.000
    O12      O        0.61690    0.82150    0.21240    1.000
    Zn1      Zn       0.40473    0.69958    0.30052    1.000
    Zn2      Zn       0.92915    0.96542    0.11603    1.000
    C61      C        0.86910    0.67250    0.53590    1.000
    C62      C        0.51230    0.53380    0.38680    1.000
    C63      C        0.81780    0.68090    0.53170    1.000
    C64      C        0.48000    0.49610    0.38200    1.000
    C65      C        0.07837    0.91613    0.66694    1.000
    C66      C        0.12807    0.94223    0.67443    1.000
    C67      C        0.14477    0.91613    0.68593    1.000
    C68      C        0.11177    0.86373    0.68993    1.000
    C69      C        0.06207    0.83763    0.68243    1.000
    C70      C        0.04537    0.86383    0.67093    1.000
    C71      C        0.05947    0.94493    0.65403    1.000
    C72      C        0.24847    0.74333    0.75167    1.000
    C73      C        0.27507    0.79293    0.74413    1.000
    C74      C        0.24897    0.81043    0.73293    1.000
    C75      C        0.19627    0.77823    0.72933    1.000
    C76      C        0.16967    0.72863    0.73683    1.000
    C77      C        0.19577    0.71113    0.74803    1.000
    C78      C        0.02237    0.77983    0.68673    1.000
    C79      C        0.49657    0.24963    0.49863    1.000
    C80      C        0.49657    0.25673    0.51753    1.000
    C81      C        0.44977    0.23843    0.52683    1.000
    C82      C        0.40297    0.21313    0.51733    1.000
    C83      C        0.40287    0.20593    0.49843    1.000
    C84      C        0.44967    0.22423    0.48903    1.000
    C85      C        0.04267    0.74843    0.68213    1.000
    C86      C        0.15977    0.08223    0.58423    1.000
    C87      C        0.21117    0.10583    0.59013    1.000
    C88      C        0.25147    0.12963    0.57753    1.000
    C89      C        0.24047    0.13003    0.55893    1.000
    C90      C        0.18907    0.10643    0.55303    1.000
    C91      C        0.14867    0.08253    0.56573    1.000
    C92      C        0.97567    0.76833    0.67763    1.000
    C93      C        0.00967    0.77393    0.70543    1.000
    C94      C        0.19577    0.94913    0.69233    1.000
    C95      C        0.27927    0.72563    0.76413    1.000
    C96      C        0.11037    0.69353    0.73223    1.000
    C97      C        0.09037    0.64473    0.74103    1.000
    C98      C        0.10447    0.68693    0.71323    1.000
    C99      C        0.08317    0.71793    0.73763    1.000
    C100     C        0.28297    0.86163    0.72673    1.000
    C101     C        0.27427    0.96503    0.70663    1.000
    C102     C        0.30577    0.02573    0.70553    1.000
    C103     C        0.35247    0.05533    0.71673    1.000
    C104     C        0.37057    0.02583    0.72703    1.000
    C105     C        0.35847    0.97203    0.72063    1.000
    C106     C        0.30277    0.93973    0.70883    1.000
    C107     C        0.54797    0.26973    0.48793    1.000
    C108     C        0.35107    0.17623    0.48723    1.000
    C109     C        0.30997    0.18433    0.49133    1.000
    C110     C        0.33067    0.12233    0.48773    1.000
    C111     C        0.36267    0.18933    0.46833    1.000
    C112     C        0.45497    0.24663    0.54603    1.000
    C113     C        0.11357    0.05533    0.59763    1.000
    C114     C        0.17067    0.10363    0.53263    1.000
    C115     C        0.17567    0.15233    0.52793    1.000
    C116     C        0.11667    0.06663    0.53073    1.000
    C117     C        0.19697    0.08933    0.51993    1.000
    C118     C        0.30187    0.15093    0.58543    1.000
    C119     C        0.43167    0.20553    0.57603    1.000
    C120     C        0.48667    0.21343    0.58293    1.000
    C121     C        0.48717    0.18243    0.59903    1.000
    C122     C        0.44667    0.16963    0.61243    1.000
    C123     C        0.39367    0.16423    0.60723    1.000
    C124     C        0.38977    0.16263    0.58453    1.000
    Cl3      Cl       0.20997    0.81773    0.67763    1.000
    Cl4      Cl       0.33757    0.08033    0.54183    1.000
    Mn3      Mn       0.19937    0.85573    0.70221    1.000
    Mn4      Mn       0.34877    0.15833    0.54851    1.000
    N5       N        0.22797    0.93273    0.69813    1.000
    N6       N        0.26827    0.88703    0.71523    1.000
    N7       N        0.42347    0.20593    0.55743    1.000
    N8       N        0.34007    0.14783    0.57653    1.000
    O13      O        0.09197    0.99413    0.64803    1.000
    O14      O        0.00797    0.91703    0.64933    1.000
    O15      O        0.12567    0.83323    0.70203    1.000
    O16      O        0.32547    0.75733    0.77063    1.000
    O17      O        0.24747    0.67363    0.76583    1.000
    O18      O        0.16687    0.79473    0.71703    1.000
    O19      O        0.59607    0.29293    0.49563    1.000
    O20      O        0.54597    0.26403    0.46943    1.000
    O21      O        0.35257    0.19323    0.52633    1.000
    O22      O        0.12097    0.05803    0.61553    1.000
    O23      O        0.06797    0.02963    0.58913    1.000
    O24      O        0.28357    0.15483    0.54573    1.000
    Zn3      Zn       0.07140    0.03291    0.63385    1.000
    Zn4      Zn       0.59582    0.29875    0.44936    1.000
    C125     C        0.53577    0.00583    0.86923    1.000
    C126     C        0.17897    0.86713    0.72013    1.000
    C127     C        0.48447    0.01423    0.86503    1.000
    C128     C        0.14667    0.82943    0.71533    1.000
    C129     C        0.74503    0.24947    0.00028    1.000
    C130     C        0.79473    0.27557    0.00777    1.000
    C131     C        0.81143    0.24947    0.01927    1.000
    C132     C        0.77843    0.19707    0.02327    1.000
    C133     C        0.72873    0.17097    0.01577    1.000
    C134     C        0.71203    0.19717    0.00427    1.000
    C135     C        0.72613    0.27827    0.98737    1.000
    C136     C        0.91513    0.07667    0.08501    1.000
    C137     C        0.94173    0.12627    0.07747    1.000
    C138     C        0.91563    0.14377    0.06627    1.000
    C139     C        0.86293    0.11157    0.06267    1.000
    C140     C        0.83633    0.06197    0.07017    1.000
    C141     C        0.86243    0.04447    0.08137    1.000
    C142     C        0.68903    0.11317    0.02007    1.000
    C143     C        0.16323    0.58297    0.83197    1.000
    C144     C        0.16323    0.59007    0.85087    1.000
    C145     C        0.11643    0.57177    0.86017    1.000
    C146     C        0.06963    0.54647    0.85067    1.000
    C147     C        0.06953    0.53927    0.83177    1.000
    C148     C        0.11633    0.55757    0.82237    1.000
    C149     C        0.70933    0.08177    0.01547    1.000
    C150     C        0.82643    0.41557    0.91757    1.000
    C151     C        0.87783    0.43917    0.92347    1.000
    C152     C        0.91813    0.46297    0.91087    1.000
    C153     C        0.90713    0.46337    0.89227    1.000
    C154     C        0.85573    0.43977    0.88637    1.000
    C155     C        0.81533    0.41587    0.89907    1.000
    C156     C        0.64233    0.10167    0.01097    1.000
    C157     C        0.67633    0.10727    0.03877    1.000
    C158     C        0.86243    0.28247    0.02567    1.000
    C159     C        0.94593    0.05897    0.09747    1.000
    C160     C        0.77703    0.02687    0.06557    1.000
    C161     C        0.75703    0.97807    0.07437    1.000
    C162     C        0.77113    0.02027    0.04657    1.000
    C163     C        0.74983    0.05127    0.07097    1.000
    C164     C        0.94963    0.19497    0.06007    1.000
    C165     C        0.94093    0.29837    0.03997    1.000
    C166     C        0.97243    0.35907    0.03887    1.000
    C167     C        0.01913    0.38867    0.05007    1.000
    C168     C        0.03723    0.35917    0.06037    1.000
    C169     C        0.02513    0.30537    0.05397    1.000
    C170     C        0.96943    0.27307    0.04217    1.000
    C171     C        0.21463    0.60307    0.82127    1.000
    C172     C        0.01773    0.50957    0.82057    1.000
    C173     C        0.97663    0.51767    0.82467    1.000
    C174     C        0.99733    0.45567    0.82107    1.000
    C175     C        0.02933    0.52267    0.80167    1.000
    C176     C        0.12163    0.57997    0.87937    1.000
    C177     C        0.78023    0.38867    0.93097    1.000
    C178     C        0.83733    0.43697    0.86597    1.000
    C179     C        0.84233    0.48567    0.86127    1.000
    C180     C        0.78333    0.39997    0.86407    1.000
    C181     C        0.86363    0.42267    0.85327    1.000
    C182     C        0.96853    0.48427    0.91877    1.000
    C183     C        0.09833    0.53887    0.90937    1.000
    C184     C        0.15333    0.54677    0.91627    1.000
    C185     C        0.15383    0.51577    0.93237    1.000
    C186     C        0.11333    0.50297    0.94577    1.000
    C187     C        0.06033    0.49757    0.94057    1.000
    C188     C        0.05643    0.49597    0.91787    1.000
    Cl5      Cl       0.87663    0.15107    0.01097    1.000
    Cl6      Cl       0.00423    0.41367    0.87517    1.000
    Mn5      Mn       0.86603    0.18907    0.03555    1.000
    Mn6      Mn       0.01543    0.49167    0.88185    1.000
    N9       N        0.89463    0.26607    0.03147    1.000
    N10      N        0.93493    0.22037    0.04857    1.000
    N11      N        0.09013    0.53927    0.89077    1.000
    N12      N        0.00673    0.48117    0.90987    1.000
    O25      O        0.75863    0.32747    0.98137    1.000
    O26      O        0.67463    0.25037    0.98267    1.000
    O27      O        0.79233    0.16657    0.03537    1.000
    O28      O        0.99213    0.09067    0.10397    1.000
    O29      O        0.91413    0.00697    0.09917    1.000
    O30      O        0.83353    0.12807    0.05037    1.000
    O31      O        0.26273    0.62627    0.82897    1.000
    O32      O        0.21263    0.59737    0.80277    1.000
    O33      O        0.01923    0.52657    0.85967    1.000
    O34      O        0.78763    0.39137    0.94887    1.000
    O35      O        0.73463    0.36297    0.92247    1.000
    O36      O        0.95023    0.48817    0.87907    1.000
    Zn5      Zn       0.73806    0.36625    0.96719    1.000
    Zn6      Zn       0.26248    0.63209    0.78270    1.000
    C189     C        0.20243    0.33917    0.20257    1.000
    C190     C        0.84563    0.20047    0.05347    1.000
    C191     C        0.15113    0.34757    0.19837    1.000
    C192     C        0.81333    0.16277    0.04867    1.000
    C193     C        0.41720    0.82890    0.33361    1.000
    C194     C        0.39110    0.85250    0.34110    1.000
    C195     C        0.41720    0.89530    0.35260    1.000
    C196     C        0.46960    0.91470    0.35660    1.000
    C197     C        0.49570    0.89110    0.34910    1.000
    C198     C        0.46950    0.84820    0.33760    1.000
    C199     C        0.38840    0.78120    0.32070    1.000
    C200     C        0.59000    0.17180    0.41834    1.000
    C201     C        0.54040    0.14880    0.41080    1.000
    C202     C        0.52290    0.10520    0.39960    1.000
    C203     C        0.55510    0.08470    0.39600    1.000
    C204     C        0.60470    0.10770    0.40350    1.000
    C205     C        0.62220    0.15130    0.41470    1.000
    C206     C        0.55350    0.90920    0.35340    1.000
    C207     C        0.08370    0.91360    0.16530    1.000
    C208     C        0.07660    0.90650    0.18420    1.000
    C209     C        0.09490    0.87800    0.19350    1.000
    C210     C        0.12020    0.85650    0.18400    1.000
    C211     C        0.12740    0.86360    0.16510    1.000
    C212     C        0.10910    0.89210    0.15570    1.000
    C213     C        0.58490    0.96090    0.34880    1.000
    C214     C        0.25110    0.74420    0.25090    1.000
    C215     C        0.22750    0.77200    0.25680    1.000
    C216     C        0.20370    0.78850    0.24420    1.000
    C217     C        0.20330    0.77710    0.22560    1.000
    C218     C        0.22690    0.74930    0.21970    1.000
    C219     C        0.25080    0.73280    0.23240    1.000
    C220     C        0.56500    0.87400    0.34430    1.000
    C221     C        0.55940    0.90240    0.37210    1.000
    C222     C        0.38420    0.91330    0.35900    1.000
    C223     C        0.60770    0.22030    0.43080    1.000
    C224     C        0.63980    0.08350    0.39890    1.000
    C225     C        0.68860    0.11230    0.40770    1.000
    C226     C        0.64640    0.08420    0.37990    1.000
    C227     C        0.61540    0.03190    0.40430    1.000
    C228     C        0.47170    0.08800    0.39340    1.000
    C229     C        0.36830    0.97590    0.37330    1.000
    C230     C        0.30760    0.94670    0.37220    1.000
    C231     C        0.27800    0.96380    0.38340    1.000
    C232     C        0.30750    0.01140    0.39370    1.000
    C233     C        0.36130    0.05310    0.38730    1.000
    C234     C        0.39360    0.02970    0.37550    1.000
    C235     C        0.06360    0.94490    0.15460    1.000
    C236     C        0.15710    0.84150    0.15390    1.000
    C237     C        0.14900    0.79230    0.15800    1.000
    C238     C        0.21100    0.87500    0.15440    1.000
    C239     C        0.14400    0.84000    0.13500    1.000
    C240     C        0.08670    0.87500    0.21270    1.000
    C241     C        0.27800    0.72490    0.26430    1.000
    C242     C        0.22970    0.73370    0.19930    1.000
    C243     C        0.18100    0.69000    0.19460    1.000
    C244     C        0.26670    0.71670    0.19740    1.000
    C245     C        0.24400    0.77430    0.18660    1.000
    C246     C        0.18240    0.81760    0.25210    1.000
    C247     C        0.12780    0.89280    0.24270    1.000
    C248     C        0.11990    0.93990    0.24960    1.000
    C249     C        0.15090    0.97140    0.26570    1.000
    C250     C        0.16370    0.94370    0.27910    1.000
    C251     C        0.16910    0.89610    0.27390    1.000
    C252     C        0.17070    0.89380    0.25120    1.000
    Cl7      Cl       0.51560    0.05890    0.34430    1.000
    Cl8      Cl       0.25300    0.92390    0.20850    1.000
    Mn7      Mn       0.47760    0.01030    0.36888    1.000
    Mn8      Mn       0.17500    0.85710    0.21518    1.000
    N13      N        0.40060    0.96190    0.36480    1.000
    N14      N        0.44630    0.04790    0.38190    1.000
    N15      N        0.12740    0.88420    0.22410    1.000
    N16      N        0.18550    0.85890    0.24320    1.000
    O37      O        0.33920    0.76450    0.31470    1.000
    O38      O        0.41630    0.75760    0.31600    1.000
    O39      O        0.50010    0.95910    0.36870    1.000
    O40      O        0.57600    0.23480    0.43730    1.000
    O41      O        0.65970    0.24050    0.43250    1.000
    O42      O        0.53860    0.03880    0.38370    1.000
    O43      O        0.04040    0.96980    0.16230    1.000
    O44      O        0.06930    0.94860    0.13610    1.000
    O45      O        0.14010    0.82600    0.19300    1.000
    O46      O        0.27530    0.72960    0.28220    1.000
    O47      O        0.30370    0.70500    0.25580    1.000
    O48      O        0.17850    0.79540    0.21240    1.000
    Zn7      Zn       0.30042    0.70515    0.30052    1.000
    Zn8      Zn       0.03458    0.96373    0.11603    1.000
    C253     C        0.32750    0.19660    0.53590    1.000
    C254     C        0.46620    0.97850    0.38680    1.000
    C255     C        0.31910    0.13690    0.53170    1.000
    C256     C        0.50390    0.98390    0.38200    1.000
    C257     C        0.08387    0.16223    0.66694    1.000
    C258     C        0.05777    0.18583    0.67443    1.000
    C259     C        0.08387    0.22863    0.68593    1.000
    C260     C        0.13627    0.24803    0.68993    1.000
    C261     C        0.16237    0.22443    0.68243    1.000
    C262     C        0.13617    0.18153    0.67093    1.000
    C263     C        0.05507    0.11453    0.65403    1.000
    C264     C        0.25667    0.50513    0.75167    1.000
    C265     C        0.20707    0.48213    0.74413    1.000
    C266     C        0.18957    0.43853    0.73293    1.000
    C267     C        0.22177    0.41803    0.72933    1.000
    C268     C        0.27137    0.44103    0.73683    1.000
    C269     C        0.28887    0.48463    0.74803    1.000
    C270     C        0.22017    0.24253    0.68673    1.000
    C271     C        0.75037    0.24693    0.49863    1.000
    C272     C        0.74327    0.23983    0.51753    1.000
    C273     C        0.76157    0.21133    0.52683    1.000
    C274     C        0.78687    0.18983    0.51733    1.000
    C275     C        0.79407    0.19693    0.49843    1.000
    C276     C        0.77577    0.22543    0.48903    1.000
    C277     C        0.25157    0.29423    0.68213    1.000
    C278     C        0.91777    0.07753    0.58423    1.000
    C279     C        0.89417    0.10533    0.59013    1.000
    C280     C        0.87037    0.12183    0.57753    1.000
    C281     C        0.86997    0.11043    0.55893    1.000
    C282     C        0.89357    0.08263    0.55303    1.000
    C283     C        0.91747    0.06613    0.56573    1.000
    C284     C        0.23167    0.20733    0.67763    1.000
    C285     C        0.22607    0.23573    0.70543    1.000
    C286     C        0.05087    0.24663    0.69233    1.000
    C287     C        0.27437    0.55363    0.76413    1.000
    C288     C        0.30647    0.41683    0.73223    1.000
    C289     C        0.35527    0.44563    0.74103    1.000
    C290     C        0.31307    0.41753    0.71323    1.000
    C291     C        0.28207    0.36523    0.73763    1.000
    C292     C        0.13837    0.42133    0.72673    1.000
    C293     C        0.03497    0.30923    0.70663    1.000
    C294     C        0.97427    0.28003    0.70553    1.000
    C295     C        0.94467    0.29713    0.71673    1.000
    C296     C        0.97417    0.34473    0.72703    1.000
    C297     C        0.02797    0.38643    0.72063    1.000
    C298     C        0.06027    0.36303    0.70883    1.000
    C299     C        0.73027    0.27823    0.48793    1.000
    C300     C        0.82377    0.17483    0.48723    1.000
    C301     C        0.81567    0.12563    0.49133    1.000
    C302     C        0.87767    0.20833    0.48773    1.000
    C303     C        0.81067    0.17333    0.46833    1.000
    C304     C        0.75337    0.20833    0.54603    1.000
    C305     C        0.94467    0.05823    0.59763    1.000
    C306     C        0.89637    0.06703    0.53263    1.000
    C307     C        0.84767    0.02333    0.52793    1.000
    C308     C        0.93337    0.05003    0.53073    1.000
    C309     C        0.91067    0.10763    0.51993    1.000
    C310     C        0.84907    0.15093    0.58543    1.000
    C311     C        0.79447    0.22613    0.57603    1.000
    C312     C        0.78657    0.27323    0.58293    1.000
    C313     C        0.81757    0.30473    0.59903    1.000
    C314     C        0.83037    0.27703    0.61243    1.000
    C315     C        0.83577    0.22943    0.60723    1.000
    C316     C        0.83737    0.22713    0.58453    1.000
    Cl9      Cl       0.18227    0.39223    0.67763    1.000
    Cl10     Cl       0.91967    0.25723    0.54183    1.000
    Mn9      Mn       0.14427    0.34363    0.70221    1.000
    Mn10     Mn       0.84167    0.19043    0.54851    1.000
    N17      N        0.06727    0.29523    0.69813    1.000
    N18      N        0.11297    0.38123    0.71523    1.000
    N19      N        0.79407    0.21753    0.55743    1.000
    N20      N        0.85217    0.19223    0.57653    1.000
    O49      O        0.00587    0.09783    0.64803    1.000
    O50      O        0.08297    0.09093    0.64933    1.000
    O51      O        0.16677    0.29243    0.70203    1.000
    O52      O        0.24267    0.56813    0.77063    1.000
    O53      O        0.32637    0.57383    0.76583    1.000
    O54      O        0.20527    0.37213    0.71703    1.000
    O55      O        0.70707    0.30313    0.49563    1.000
    O56      O        0.73597    0.28193    0.46943    1.000
    O57      O        0.80677    0.15933    0.52633    1.000
    O58      O        0.94197    0.06293    0.61553    1.000
    O59      O        0.97037    0.03833    0.58913    1.000
    O60      O        0.84517    0.12873    0.54573    1.000
    Zn9      Zn       0.96709    0.03848    0.63385    1.000
    Zn10     Zn       0.70125    0.29706    0.44936    1.000
    C317     C        0.99417    0.52993    0.86923    1.000
    C318     C        0.13287    0.31183    0.72013    1.000
    C319     C        0.98577    0.47023    0.86503    1.000
    C320     C        0.17057    0.31723    0.71533    1.000
    C321     C        0.75053    0.49557    0.00028    1.000
    C322     C        0.72443    0.51917    0.00777    1.000
    C323     C        0.75053    0.56197    0.01927    1.000
    C324     C        0.80293    0.58137    0.02327    1.000
    C325     C        0.82903    0.55777    0.01577    1.000
    C326     C        0.80283    0.51487    0.00427    1.000
    C327     C        0.72173    0.44787    0.98737    1.000
    C328     C        0.92333    0.83847    0.08501    1.000
    C329     C        0.87373    0.81547    0.07747    1.000
    C330     C        0.85623    0.77187    0.06627    1.000
    C331     C        0.88843    0.75137    0.06267    1.000
    C332     C        0.93803    0.77437    0.07017    1.000
    C333     C        0.95553    0.81797    0.08137    1.000
    C334     C        0.88683    0.57587    0.02007    1.000
    C335     C        0.41703    0.58027    0.83197    1.000
    C336     C        0.40993    0.57317    0.85087    1.000
    C337     C        0.42823    0.54467    0.86017    1.000
    C338     C        0.45353    0.52317    0.85067    1.000
    C339     C        0.46073    0.53027    0.83177    1.000
    C340     C        0.44243    0.55877    0.82237    1.000
    C341     C        0.91823    0.62757    0.01547    1.000
    C342     C        0.58443    0.41087    0.91757    1.000
    C343     C        0.56083    0.43867    0.92347    1.000
    C344     C        0.53703    0.45517    0.91087    1.000
    C345     C        0.53663    0.44377    0.89227    1.000
    C346     C        0.56023    0.41597    0.88637    1.000
    C347     C        0.58413    0.39947    0.89907    1.000
    C348     C        0.89833    0.54067    0.01097    1.000
    C349     C        0.89273    0.56907    0.03877    1.000
    C350     C        0.71753    0.57997    0.02567    1.000
    C351     C        0.94103    0.88697    0.09747    1.000
    C352     C        0.97313    0.75017    0.06557    1.000
    C353     C        0.02193    0.77897    0.07437    1.000
    C354     C        0.97973    0.75087    0.04657    1.000
    C355     C        0.94873    0.69857    0.07097    1.000
    C356     C        0.80503    0.75467    0.06007    1.000
    C357     C        0.70163    0.64257    0.03997    1.000
    C358     C        0.64093    0.61337    0.03887    1.000
    C359     C        0.61133    0.63047    0.05007    1.000
    C360     C        0.64083    0.67807    0.06037    1.000
    C361     C        0.69463    0.71977    0.05397    1.000
    C362     C        0.72693    0.69637    0.04217    1.000
    C363     C        0.39693    0.61157    0.82127    1.000
    C364     C        0.49043    0.50817    0.82057    1.000
    C365     C        0.48233    0.45897    0.82467    1.000
    C366     C        0.54433    0.54167    0.82107    1.000
    C367     C        0.47733    0.50667    0.80167    1.000
    C368     C        0.42003    0.54167    0.87937    1.000
    C369     C        0.61133    0.39157    0.93097    1.000
    C370     C        0.56303    0.40037    0.86597    1.000
    C371     C        0.51433    0.35667    0.86127    1.000
    C372     C        0.60003    0.38337    0.86407    1.000
    C373     C        0.57733    0.44097    0.85327    1.000
    C374     C        0.51573    0.48427    0.91877    1.000
    C375     C        0.46113    0.55947    0.90937    1.000
    C376     C        0.45323    0.60657    0.91627    1.000
    C377     C        0.48423    0.63807    0.93237    1.000
    C378     C        0.49703    0.61037    0.94577    1.000
    C379     C        0.50243    0.56277    0.94057    1.000
    C380     C        0.50403    0.56047    0.91787    1.000
    Cl11     Cl       0.84893    0.72557    0.01097    1.000
    Cl12     Cl       0.58633    0.59057    0.87517    1.000
    Mn11     Mn       0.81093    0.67697    0.03555    1.000
    Mn12     Mn       0.50833    0.52377    0.88185    1.000
    N21      N        0.73393    0.62857    0.03147    1.000
    N22      N        0.77963    0.71457    0.04857    1.000
    N23      N        0.46073    0.55087    0.89077    1.000
    N24      N        0.51883    0.52557    0.90987    1.000
    O61      O        0.67253    0.43117    0.98137    1.000
    O62      O        0.74963    0.42427    0.98267    1.000
    O63      O        0.83343    0.62577    0.03537    1.000
    O64      O        0.90933    0.90147    0.10397    1.000
    O65      O        0.99303    0.90717    0.09917    1.000
    O66      O        0.87193    0.70547    0.05037    1.000
    O67      O        0.37373    0.63647    0.82897    1.000
    O68      O        0.40263    0.61527    0.80277    1.000
    O69      O        0.47343    0.49267    0.85967    1.000
    O70      O        0.60863    0.39627    0.94887    1.000
    O71      O        0.63703    0.37167    0.92247    1.000
    O72      O        0.51183    0.46207    0.87907    1.000
    Zn11     Zn       0.63375    0.37182    0.96719    1.000
    Zn12     Zn       0.36791    0.63040    0.78270    1.000
    C381     C        0.66083    0.86327    0.20257    1.000
    C382     C        0.79953    0.64517    0.05347    1.000
    C383     C        0.65243    0.80357    0.19837    1.000
    C384     C        0.83723    0.65057    0.04867    1.000
    C385     C        0.17110    0.58830    0.33361    1.000
    C386     C        0.14750    0.53860    0.34110    1.000
    C387     C        0.10470    0.52190    0.35260    1.000
    C388     C        0.08530    0.55490    0.35660    1.000
    C389     C        0.10890    0.60460    0.34910    1.000
    C390     C        0.15180    0.62130    0.33760    1.000
    C391     C        0.21880    0.60720    0.32070    1.000
    C392     C        0.82820    0.41820    0.41834    1.000
    C393     C        0.85120    0.39160    0.41080    1.000
    C394     C        0.89480    0.41770    0.39960    1.000
    C395     C        0.91530    0.47040    0.39600    1.000
    C396     C        0.89230    0.49700    0.40350    1.000
    C397     C        0.84870    0.47090    0.41470    1.000
    C398     C        0.09080    0.64430    0.35340    1.000
    C399     C        0.08640    0.17010    0.16530    1.000
    C400     C        0.09350    0.17010    0.18420    1.000
    C401     C        0.12200    0.21690    0.19350    1.000
    C402     C        0.14350    0.26370    0.18400    1.000
    C403     C        0.13640    0.26380    0.16510    1.000
    C404     C        0.10790    0.21700    0.15570    1.000
    C405     C        0.03910    0.62400    0.34880    1.000
    C406     C        0.25580    0.50690    0.25090    1.000
    C407     C        0.22800    0.45550    0.25680    1.000
    C408     C        0.21150    0.41520    0.24420    1.000
    C409     C        0.22290    0.42620    0.22560    1.000
    C410     C        0.25070    0.47760    0.21970    1.000
    C411     C        0.26720    0.51800    0.23240    1.000
    C412     C        0.12600    0.69100    0.34430    1.000
    C413     C        0.09760    0.65700    0.37210    1.000
    C414     C        0.08670    0.47090    0.35900    1.000
    C415     C        0.77970    0.38740    0.43080    1.000
    C416     C        0.91650    0.55630    0.39890    1.000
    C417     C        0.88770    0.57630    0.40770    1.000
    C418     C        0.91580    0.56220    0.37990    1.000
    C419     C        0.96810    0.58350    0.40430    1.000
    C420     C        0.91200    0.38370    0.39340    1.000
    C421     C        0.02410    0.39240    0.37330    1.000
    C422     C        0.05330    0.36090    0.37220    1.000
    C423     C        0.03620    0.31420    0.38340    1.000
    C424     C        0.98860    0.29610    0.39370    1.000
    C425     C        0.94690    0.30820    0.38730    1.000
    C426     C        0.97030    0.36390    0.37550    1.000
    C427     C        0.05510    0.11870    0.15460    1.000
    C428     C        0.15850    0.31560    0.15390    1.000
    C429     C        0.20770    0.35670    0.15800    1.000
    C430     C        0.12500    0.33600    0.15440    1.000
    C431     C        0.16000    0.30400    0.13500    1.000
    C432     C        0.12500    0.21170    0.21270    1.000
    C433     C        0.27510    0.55310    0.26430    1.000
    C434     C        0.26630    0.49600    0.19930    1.000
    C435     C        0.31000    0.49100    0.19460    1.000
    C436     C        0.28330    0.55000    0.19740    1.000
    C437     C        0.22570    0.46970    0.18660    1.000
    C438     C        0.18240    0.36480    0.25210    1.000
    C439     C        0.10720    0.23500    0.24270    1.000
    C440     C        0.06010    0.18000    0.24960    1.000
    C441     C        0.02860    0.17950    0.26570    1.000
    C442     C        0.05630    0.22000    0.27910    1.000
    C443     C        0.10390    0.27300    0.27390    1.000
    C444     C        0.10620    0.27690    0.25120    1.000
    Cl13     Cl       0.94110    0.45670    0.34430    1.000
    Cl14     Cl       0.07610    0.32910    0.20850    1.000
    Mn13     Mn       0.98970    0.46730    0.36888    1.000
    Mn14     Mn       0.14290    0.31790    0.21518    1.000
    N25      N        0.03810    0.43870    0.36480    1.000
    N26      N        0.95210    0.39840    0.38190    1.000
    N27      N        0.11580    0.24320    0.22410    1.000
    N28      N        0.14110    0.32660    0.24320    1.000
    O73      O        0.23550    0.57470    0.31470    1.000
    O74      O        0.24240    0.65870    0.31600    1.000
    O75      O        0.04090    0.54100    0.36870    1.000
    O76      O        0.76520    0.34120    0.43730    1.000
    O77      O        0.75950    0.41920    0.43250    1.000
    O78      O        0.96120    0.49980    0.38370    1.000
    O79      O        0.03020    0.07060    0.16230    1.000
    O80      O        0.05140    0.12070    0.13610    1.000
    O81      O        0.17400    0.31410    0.19300    1.000
    O82      O        0.27040    0.54570    0.28220    1.000
    O83      O        0.29500    0.59870    0.25580    1.000
    O84      O        0.20460    0.38310    0.21240    1.000
    Zn13     Zn       0.29485    0.59527    0.30052    1.000
    Zn14     Zn       0.03627    0.07085    0.11603    1.000
    C445     C        0.80340    0.13090    0.53590    1.000
    C446     C        0.02150    0.48770    0.38680    1.000
    C447     C        0.86310    0.18220    0.53170    1.000
    C448     C        0.01610    0.52000    0.38200    1.000
    C449     C        0.83777    0.92163    0.66694    1.000
    C450     C        0.81417    0.87193    0.67443    1.000
    C451     C        0.77137    0.85523    0.68593    1.000
    C452     C        0.75197    0.88823    0.68993    1.000
    C453     C        0.77557    0.93793    0.68243    1.000
    C454     C        0.81847    0.95463    0.67093    1.000
    C455     C        0.88547    0.94053    0.65403    1.000
    C456     C        0.49487    0.75153    0.75167    1.000
    C457     C        0.51787    0.72493    0.74413    1.000
    C458     C        0.56147    0.75103    0.73293    1.000
    C459     C        0.58197    0.80373    0.72933    1.000
    C460     C        0.55897    0.83033    0.73683    1.000
    C461     C        0.51537    0.80423    0.74803    1.000
    C462     C        0.75747    0.97763    0.68673    1.000
    C463     C        0.75307    0.50343    0.49863    1.000
    C464     C        0.76017    0.50343    0.51753    1.000
    C465     C        0.78867    0.55023    0.52683    1.000
    C466     C        0.81017    0.59703    0.51733    1.000
    C467     C        0.80307    0.59713    0.49843    1.000
    C468     C        0.77457    0.55033    0.48903    1.000
    C469     C        0.70577    0.95733    0.68213    1.000
    C470     C        0.92247    0.84023    0.58423    1.000
    C471     C        0.89467    0.78883    0.59013    1.000
    C472     C        0.87817    0.74853    0.57753    1.000
    C473     C        0.88957    0.75953    0.55893    1.000
    C474     C        0.91737    0.81093    0.55303    1.000
    C475     C        0.93387    0.85133    0.56573    1.000
    C476     C        0.79267    0.02433    0.67763    1.000
    C477     C        0.76427    0.99033    0.70543    1.000
    C478     C        0.75337    0.80423    0.69233    1.000
    C479     C        0.44637    0.72073    0.76413    1.000
    C480     C        0.58317    0.88963    0.73223    1.000
    C481     C        0.55437    0.90963    0.74103    1.000
    C482     C        0.58247    0.89553    0.71323    1.000
    C483     C        0.63477    0.91683    0.73763    1.000
    C484     C        0.57867    0.71703    0.72673    1.000
    C485     C        0.69077    0.72573    0.70663    1.000
    C486     C        0.71997    0.69423    0.70553    1.000
    C487     C        0.70287    0.64753    0.71673    1.000
    C488     C        0.65527    0.62943    0.72703    1.000
    C489     C        0.61357    0.64153    0.72063    1.000
    C490     C        0.63697    0.69723    0.70883    1.000
    C491     C        0.72177    0.45203    0.48793    1.000
    C492     C        0.82517    0.64893    0.48723    1.000
    C493     C        0.87437    0.69003    0.49133    1.000
    C494     C        0.79167    0.66933    0.48773    1.000
    C495     C        0.82667    0.63733    0.46833    1.000
    C496     C        0.79167    0.54503    0.54603    1.000
    C497     C        0.94177    0.88643    0.59763    1.000
    C498     C        0.93297    0.82933    0.53263    1.000
    C499     C        0.97667    0.82433    0.52793    1.000
    C500     C        0.94997    0.88333    0.53073    1.000
    C501     C        0.89237    0.80303    0.51993    1.000
    C502     C        0.84907    0.69813    0.58543    1.000
    C503     C        0.77387    0.56833    0.57603    1.000
    C504     C        0.72677    0.51333    0.58293    1.000
    C505     C        0.69527    0.51283    0.59903    1.000
    C506     C        0.72297    0.55333    0.61243    1.000
    C507     C        0.77057    0.60633    0.60723    1.000
    C508     C        0.77287    0.61023    0.58453    1.000
    Cl15     Cl       0.60777    0.79003    0.67763    1.000
    Cl16     Cl       0.74277    0.66243    0.54183    1.000
    Mn15     Mn       0.65637    0.80063    0.70221    1.000
    Mn16     Mn       0.80957    0.65123    0.54851    1.000
    N29      N        0.70477    0.77203    0.69813    1.000
    N30      N        0.61877    0.73173    0.71523    1.000
    N31      N        0.78247    0.57653    0.55743    1.000
    N32      N        0.80777    0.65993    0.57653    1.000
    O85      O        0.90217    0.90803    0.64803    1.000
    O86      O        0.90907    0.99203    0.64933    1.000
    O87      O        0.70757    0.87433    0.70203    1.000
    O88      O        0.43187    0.67453    0.77063    1.000
    O89      O        0.42617    0.75253    0.76583    1.000
    O90      O        0.62787    0.83313    0.71703    1.000
    O91      O        0.69687    0.40393    0.49563    1.000
    O92      O        0.71807    0.45403    0.46943    1.000
    O93      O        0.84067    0.64743    0.52633    1.000
    O94      O        0.93707    0.87903    0.61553    1.000
    O95      O        0.96167    0.93203    0.58913    1.000
    O96      O        0.87127    0.71643    0.54573    1.000
    Zn15     Zn       0.96152    0.92860    0.63385    1.000
    Zn16     Zn       0.70294    0.40418    0.44936    1.000
    C509     C        0.47007    0.46423    0.86923    1.000
    C510     C        0.68817    0.82103    0.72013    1.000
    C511     C        0.52977    0.51553    0.86503    1.000
    C512     C        0.68277    0.85333    0.71533    1.000
    C513     C        0.50443    0.25497    0.00028    1.000
    C514     C        0.48083    0.20527    0.00777    1.000
    C515     C        0.43803    0.18857    0.01927    1.000
    C516     C        0.41863    0.22157    0.02327    1.000
    C517     C        0.44223    0.27127    0.01577    1.000
    C518     C        0.48513    0.28797    0.00427    1.000
    C519     C        0.55213    0.27387    0.98737    1.000
    C520     C        0.16153    0.08487    0.08501    1.000
    C521     C        0.18453    0.05827    0.07747    1.000
    C522     C        0.22813    0.08437    0.06627    1.000
    C523     C        0.24863    0.13707    0.06267    1.000
    C524     C        0.22563    0.16367    0.07017    1.000
    C525     C        0.18203    0.13757    0.08137    1.000
    C526     C        0.42413    0.31097    0.02007    1.000
    C527     C        0.41973    0.83677    0.83197    1.000
    C528     C        0.42683    0.83677    0.85087    1.000
    C529     C        0.45533    0.88357    0.86017    1.000
    C530     C        0.47683    0.93037    0.85067    1.000
    C531     C        0.46973    0.93047    0.83177    1.000
    C532     C        0.44123    0.88367    0.82237    1.000
    C533     C        0.37243    0.29067    0.01547    1.000
    C534     C        0.58913    0.17357    0.91757    1.000
    C535     C        0.56133    0.12217    0.92347    1.000
    C536     C        0.54483    0.08187    0.91087    1.000
    C537     C        0.55623    0.09287    0.89227    1.000
    C538     C        0.58403    0.14427    0.88637    1.000
    C539     C        0.60053    0.18467    0.89907    1.000
    C540     C        0.45933    0.35767    0.01097    1.000
    C541     C        0.43093    0.32367    0.03877    1.000
    C542     C        0.42003    0.13757    0.02567    1.000
    C543     C        0.11303    0.05407    0.09747    1.000
    C544     C        0.24983    0.22297    0.06557    1.000
    C545     C        0.22103    0.24297    0.07437    1.000
    C546     C        0.24913    0.22887    0.04657    1.000
    C547     C        0.30143    0.25017    0.07097    1.000
    C548     C        0.24533    0.05037    0.06007    1.000
    C549     C        0.35743    0.05907    0.03997    1.000
    C550     C        0.38663    0.02757    0.03887    1.000
    C551     C        0.36953    0.98087    0.05007    1.000
    C552     C        0.32193    0.96277    0.06037    1.000
    C553     C        0.28023    0.97487    0.05397    1.000
    C554     C        0.30363    0.03057    0.04217    1.000
    C555     C        0.38843    0.78537    0.82127    1.000
    C556     C        0.49183    0.98227    0.82057    1.000
    C557     C        0.54103    0.02337    0.82467    1.000
    C558     C        0.45833    0.00267    0.82107    1.000
    C559     C        0.49333    0.97067    0.80167    1.000
    C560     C        0.45833    0.87837    0.87937    1.000
    C561     C        0.60843    0.21977    0.93097    1.000
    C562     C        0.59963    0.16267    0.86597    1.000
    C563     C        0.64333    0.15767    0.86127    1.000
    C564     C        0.61663    0.21667    0.86407    1.000
    C565     C        0.55903    0.13637    0.85327    1.000
    C566     C        0.51573    0.03147    0.91877    1.000
    C567     C        0.44053    0.90167    0.90937    1.000
    C568     C        0.39343    0.84667    0.91627    1.000
    C569     C        0.36193    0.84617    0.93237    1.000
    C570     C        0.38963    0.88667    0.94577    1.000
    C571     C        0.43723    0.93967    0.94057    1.000
    C572     C        0.43953    0.94357    0.91787    1.000
    Cl17     Cl       0.27443    0.12337    0.01097    1.000
    Cl18     Cl       0.40943    0.99577    0.87517    1.000
    Mn17     Mn       0.32303    0.13397    0.03555    1.000
    Mn18     Mn       0.47623    0.98457    0.88185    1.000
    N33      N        0.37143    0.10537    0.03147    1.000
    N34      N        0.28543    0.06507    0.04857    1.000
    N35      N        0.44913    0.90987    0.89077    1.000
    N36      N        0.47443    0.99327    0.90987    1.000
    O97      O        0.56883    0.24137    0.98137    1.000
    O98      O        0.57573    0.32537    0.98267    1.000
    O99      O        0.37423    0.20767    0.03537    1.000
    O100     O        0.09853    0.00787    0.10397    1.000
    O101     O        0.09283    0.08587    0.09917    1.000
    O102     O        0.29453    0.16647    0.05037    1.000
    O103     O        0.36353    0.73727    0.82897    1.000
    O104     O        0.38473    0.78737    0.80277    1.000
    O105     O        0.50733    0.98077    0.85967    1.000
    O106     O        0.60373    0.21237    0.94887    1.000
    O107     O        0.62833    0.26537    0.92247    1.000
    O108     O        0.53793    0.04977    0.87907    1.000
    Zn17     Zn       0.62818    0.26194    0.96719    1.000
    Zn18     Zn       0.36960    0.73752    0.78270    1.000
    C573     C        0.13673    0.79757    0.20257    1.000
    C574     C        0.35483    0.15437    0.05347    1.000
    C575     C        0.19643    0.84887    0.19837    1.000
    C576     C        0.34943    0.18667    0.04867    1.000
    Zn19     Zn       0.00000    0.00000    0.15177    1.000
    O109     O        0.00000    0.00000    0.12490    1.000
    Zn20     Zn       0.66667    0.33333    0.48510    1.000
    O110     O        0.66667    0.33333    0.45823    1.000
    Zn21     Zn       0.33333    0.66667    0.81844    1.000
    O111     O        0.33333    0.66667    0.79157    1.000
    Zn22     Zn       0.33333    0.66667    0.26516    1.000
    O112     O        0.33333    0.66667    0.29080    1.000
    Zn23     Zn       0.00000    0.00000    0.59849    1.000
    O113     O        0.00000    0.00000    0.62413    1.000
    Zn24     Zn       0.66667    0.33333    0.93183    1.000
    O114     O        0.66667    0.33333    0.95747    1.000
    C577     C        0.58280    0.41170    0.66639    1.000
    C578     C        0.60890    0.46140    0.65890    1.000
    C579     C        0.58280    0.47810    0.64740    1.000
    C580     C        0.53040    0.44510    0.64340    1.000
    C581     C        0.50430    0.39540    0.65090    1.000
    C582     C        0.53050    0.37870    0.66240    1.000
    C583     C        0.61160    0.39280    0.67930    1.000
    C584     C        0.41000    0.58180    0.58166    1.000
    C585     C        0.45960    0.60840    0.58920    1.000
    C586     C        0.47710    0.58230    0.60040    1.000
    C587     C        0.44490    0.52960    0.60400    1.000
    C588     C        0.39530    0.50300    0.59650    1.000
    C589     C        0.37780    0.52910    0.58530    1.000
    C590     C        0.44650    0.35570    0.64660    1.000
    C591     C        0.91630    0.82990    0.83470    1.000
    C592     C        0.92340    0.82990    0.81580    1.000
    C593     C        0.90510    0.78310    0.80650    1.000
    C594     C        0.87980    0.73630    0.81600    1.000
    C595     C        0.87260    0.73620    0.83490    1.000
    C596     C        0.89090    0.78300    0.84430    1.000
    C597     C        0.41510    0.37600    0.65120    1.000
    C598     C        0.74890    0.49310    0.74910    1.000
    C599     C        0.77250    0.54450    0.74320    1.000
    C600     C        0.79630    0.58480    0.75580    1.000
    C601     C        0.79670    0.57380    0.77440    1.000
    C602     C        0.77310    0.52240    0.78030    1.000
    C603     C        0.74920    0.48200    0.76760    1.000
    C604     C        0.43500    0.30900    0.65570    1.000
    C605     C        0.44060    0.34300    0.62790    1.000
    C606     C        0.61580    0.52910    0.64100    1.000
    C607     C        0.39230    0.61260    0.56920    1.000
    C608     C        0.36020    0.44370    0.60110    1.000
    C609     C        0.31140    0.42370    0.59230    1.000
    C610     C        0.35360    0.43780    0.62010    1.000
    C611     C        0.38460    0.41650    0.59570    1.000
    C612     C        0.52830    0.61630    0.60660    1.000
    C613     C        0.63170    0.60760    0.62670    1.000
    C614     C        0.69240    0.63910    0.62780    1.000
    C615     C        0.72200    0.68580    0.61660    1.000
    C616     C        0.69250    0.70390    0.60630    1.000
    C617     C        0.63870    0.69180    0.61270    1.000
    C618     C        0.60640    0.63610    0.62450    1.000
    C619     C        0.93640    0.88130    0.84540    1.000
    C620     C        0.84290    0.68440    0.84610    1.000
    C621     C        0.85100    0.64330    0.84200    1.000
    C622     C        0.78900    0.66400    0.84560    1.000
    C623     C        0.85600    0.69600    0.86500    1.000
    C624     C        0.91330    0.78830    0.78730    1.000
    C625     C        0.72200    0.44690    0.73570    1.000
    C626     C        0.77030    0.50400    0.80070    1.000
    C627     C        0.81900    0.50900    0.80540    1.000
    C628     C        0.73330    0.45000    0.80260    1.000
    C629     C        0.75600    0.53030    0.81340    1.000
    C630     C        0.81760    0.63520    0.74790    1.000
    C631     C        0.87220    0.76500    0.75730    1.000
    C632     C        0.88010    0.82000    0.75040    1.000
    C633     C        0.84910    0.82050    0.73430    1.000
    C634     C        0.83630    0.78000    0.72090    1.000
    C635     C        0.83090    0.72700    0.72610    1.000
    C636     C        0.82930    0.72310    0.74880    1.000
    Cl19     Cl       0.48440    0.54330    0.65570    1.000
    Cl20     Cl       0.74700    0.67090    0.79150    1.000
    Mn19     Mn       0.52240    0.53270    0.63112    1.000
    Mn20     Mn       0.82500    0.68210    0.78482    1.000
    N37      N        0.59940    0.56130    0.63520    1.000
    N38      N        0.55370    0.60160    0.61810    1.000
    N39      N        0.87260    0.75680    0.77590    1.000
    N40      N        0.81450    0.67340    0.75680    1.000
    O115     O        0.66080    0.42530    0.68530    1.000
    O116     O        0.58370    0.34130    0.68400    1.000
    O117     O        0.49990    0.45900    0.63130    1.000
    O118     O        0.42400    0.65880    0.56270    1.000
    O119     O        0.34030    0.58080    0.56750    1.000
    O120     O        0.46140    0.50020    0.61630    1.000
    O121     O        0.95960    0.92940    0.83770    1.000
    O122     O        0.93070    0.87930    0.86390    1.000
    O123     O        0.85990    0.68590    0.80700    1.000
    O124     O        0.72470    0.45430    0.71780    1.000
    O125     O        0.69630    0.40130    0.74420    1.000
    O126     O        0.82150    0.61690    0.78760    1.000
    Zn25     Zn       0.69958    0.40473    0.69948    1.000
    Zn26     Zn       0.96542    0.92915    0.88397    1.000
    C637     C        0.67250    0.86910    0.46410    1.000
    C638     C        0.53380    0.51230    0.61320    1.000
    C639     C        0.68090    0.81780    0.46830    1.000
    C640     C        0.49610    0.48000    0.61800    1.000
    C641     C        0.24947    0.74503    0.99972    1.000
    C642     C        0.27557    0.79473    0.99223    1.000
    C643     C        0.24947    0.81143    0.98073    1.000
    C644     C        0.19707    0.77843    0.97673    1.000
    C645     C        0.17097    0.72873    0.98423    1.000
    C646     C        0.19717    0.71203    0.99573    1.000
    C647     C        0.27827    0.72613    0.01263    1.000
    C648     C        0.07667    0.91513    0.91499    1.000
    C649     C        0.12627    0.94173    0.92253    1.000
    C650     C        0.14377    0.91563    0.93373    1.000
    C651     C        0.11157    0.86293    0.93733    1.000
    C652     C        0.06197    0.83633    0.92983    1.000
    C653     C        0.04447    0.86243    0.91863    1.000
    C654     C        0.11317    0.68903    0.97993    1.000
    C655     C        0.58297    0.16323    0.16803    1.000
    C656     C        0.59007    0.16323    0.14913    1.000
    C657     C        0.57177    0.11643    0.13983    1.000
    C658     C        0.54647    0.06963    0.14933    1.000
    C659     C        0.53927    0.06953    0.16823    1.000
    C660     C        0.55757    0.11633    0.17763    1.000
    C661     C        0.08177    0.70933    0.98453    1.000
    C662     C        0.41557    0.82643    0.08243    1.000
    C663     C        0.43917    0.87783    0.07653    1.000
    C664     C        0.46297    0.91813    0.08913    1.000
    C665     C        0.46337    0.90713    0.10773    1.000
    C666     C        0.43977    0.85573    0.11363    1.000
    C667     C        0.41587    0.81533    0.10093    1.000
    C668     C        0.10167    0.64233    0.98903    1.000
    C669     C        0.10727    0.67633    0.96123    1.000
    C670     C        0.28247    0.86243    0.97433    1.000
    C671     C        0.05897    0.94593    0.90253    1.000
    C672     C        0.02687    0.77703    0.93443    1.000
    C673     C        0.97807    0.75703    0.92563    1.000
    C674     C        0.02027    0.77113    0.95343    1.000
    C675     C        0.05127    0.74983    0.92903    1.000
    C676     C        0.19497    0.94963    0.93993    1.000
    C677     C        0.29837    0.94093    0.96003    1.000
    C678     C        0.35907    0.97243    0.96113    1.000
    C679     C        0.38867    0.01913    0.94993    1.000
    C680     C        0.35917    0.03723    0.93963    1.000
    C681     C        0.30537    0.02513    0.94603    1.000
    C682     C        0.27307    0.96943    0.95783    1.000
    C683     C        0.60307    0.21463    0.17873    1.000
    C684     C        0.50957    0.01773    0.17943    1.000
    C685     C        0.51767    0.97663    0.17533    1.000
    C686     C        0.45567    0.99733    0.17893    1.000
    C687     C        0.52267    0.02933    0.19833    1.000
    C688     C        0.57997    0.12163    0.12063    1.000
    C689     C        0.38867    0.78023    0.06903    1.000
    C690     C        0.43697    0.83733    0.13403    1.000
    C691     C        0.48567    0.84233    0.13873    1.000
    C692     C        0.39997    0.78333    0.13593    1.000
    C693     C        0.42267    0.86363    0.14673    1.000
    C694     C        0.48427    0.96853    0.08123    1.000
    C695     C        0.53887    0.09833    0.09063    1.000
    C696     C        0.54677    0.15333    0.08373    1.000
    C697     C        0.51577    0.15383    0.06763    1.000
    C698     C        0.50297    0.11333    0.05423    1.000
    C699     C        0.49757    0.06033    0.05943    1.000
    C700     C        0.49597    0.05643    0.08213    1.000
    Cl21     Cl       0.15107    0.87663    0.98903    1.000
    Cl22     Cl       0.41367    0.00423    0.12483    1.000
    Mn21     Mn       0.18907    0.86603    0.96445    1.000
    Mn22     Mn       0.49167    0.01543    0.11815    1.000
    N41      N        0.26607    0.89463    0.96853    1.000
    N42      N        0.22037    0.93493    0.95143    1.000
    N43      N        0.53927    0.09013    0.10923    1.000
    N44      N        0.48117    0.00673    0.09013    1.000
    O127     O        0.32747    0.75863    0.01863    1.000
    O128     O        0.25037    0.67463    0.01733    1.000
    O129     O        0.16657    0.79233    0.96463    1.000
    O130     O        0.09067    0.99213    0.89603    1.000
    O131     O        0.00697    0.91413    0.90083    1.000
    O132     O        0.12807    0.83353    0.94963    1.000
    O133     O        0.62627    0.26273    0.17103    1.000
    O134     O        0.59737    0.21263    0.19723    1.000
    O135     O        0.52657    0.01923    0.14033    1.000
    O136     O        0.39137    0.78763    0.05113    1.000
    O137     O        0.36297    0.73463    0.07753    1.000
    O138     O        0.48817    0.95023    0.12093    1.000
    Zn27     Zn       0.36625    0.73806    0.03281    1.000
    Zn28     Zn       0.63209    0.26248    0.21730    1.000
    C701     C        0.33917    0.20243    0.79743    1.000
    C702     C        0.20047    0.84563    0.94653    1.000
    C703     C        0.34757    0.15113    0.80163    1.000
    C704     C        0.16277    0.81333    0.95133    1.000
    C705     C        0.91613    0.07837    0.33306    1.000
    C706     C        0.94223    0.12807    0.32557    1.000
    C707     C        0.91613    0.14477    0.31407    1.000
    C708     C        0.86373    0.11177    0.31007    1.000
    C709     C        0.83763    0.06207    0.31757    1.000
    C710     C        0.86383    0.04537    0.32907    1.000
    C711     C        0.94493    0.05947    0.34597    1.000
    C712     C        0.74333    0.24847    0.24833    1.000
    C713     C        0.79293    0.27507    0.25587    1.000
    C714     C        0.81043    0.24897    0.26707    1.000
    C715     C        0.77823    0.19627    0.27067    1.000
    C716     C        0.72863    0.16967    0.26317    1.000
    C717     C        0.71113    0.19577    0.25197    1.000
    C718     C        0.77983    0.02237    0.31327    1.000
    C719     C        0.24963    0.49657    0.50137    1.000
    C720     C        0.25673    0.49657    0.48247    1.000
    C721     C        0.23843    0.44977    0.47317    1.000
    C722     C        0.21313    0.40297    0.48267    1.000
    C723     C        0.20593    0.40287    0.50157    1.000
    C724     C        0.22423    0.44967    0.51097    1.000
    C725     C        0.74843    0.04267    0.31787    1.000
    C726     C        0.08223    0.15977    0.41577    1.000
    C727     C        0.10583    0.21117    0.40987    1.000
    C728     C        0.12963    0.25147    0.42247    1.000
    C729     C        0.13003    0.24047    0.44107    1.000
    C730     C        0.10643    0.18907    0.44697    1.000
    C731     C        0.08253    0.14867    0.43427    1.000
    C732     C        0.76833    0.97567    0.32237    1.000
    C733     C        0.77393    0.00967    0.29457    1.000
    C734     C        0.94913    0.19577    0.30767    1.000
    C735     C        0.72563    0.27927    0.23587    1.000
    C736     C        0.69353    0.11037    0.26777    1.000
    C737     C        0.64473    0.09037    0.25897    1.000
    C738     C        0.68693    0.10447    0.28677    1.000
    C739     C        0.71793    0.08317    0.26237    1.000
    C740     C        0.86163    0.28297    0.27327    1.000
    C741     C        0.96503    0.27427    0.29337    1.000
    C742     C        0.02573    0.30577    0.29447    1.000
    C743     C        0.05533    0.35247    0.28327    1.000
    C744     C        0.02583    0.37057    0.27297    1.000
    C745     C        0.97203    0.35847    0.27937    1.000
    C746     C        0.93973    0.30277    0.29117    1.000
    C747     C        0.26973    0.54797    0.51207    1.000
    C748     C        0.17623    0.35107    0.51277    1.000
    C749     C        0.18433    0.30997    0.50867    1.000
    C750     C        0.12233    0.33067    0.51227    1.000
    C751     C        0.18933    0.36267    0.53167    1.000
    C752     C        0.24663    0.45497    0.45397    1.000
    C753     C        0.05533    0.11357    0.40237    1.000
    C754     C        0.10363    0.17067    0.46737    1.000
    C755     C        0.15233    0.17567    0.47207    1.000
    C756     C        0.06663    0.11667    0.46927    1.000
    C757     C        0.08933    0.19697    0.48007    1.000
    C758     C        0.15093    0.30187    0.41457    1.000
    C759     C        0.20553    0.43167    0.42397    1.000
    C760     C        0.21343    0.48667    0.41707    1.000
    C761     C        0.18243    0.48717    0.40097    1.000
    C762     C        0.16963    0.44667    0.38757    1.000
    C763     C        0.16423    0.39367    0.39277    1.000
    C764     C        0.16263    0.38977    0.41547    1.000
    Cl23     Cl       0.81773    0.20997    0.32237    1.000
    Cl24     Cl       0.08033    0.33757    0.45817    1.000
    Mn23     Mn       0.85573    0.19937    0.29779    1.000
    Mn24     Mn       0.15833    0.34877    0.45149    1.000
    N45      N        0.93273    0.22797    0.30187    1.000
    N46      N        0.88703    0.26827    0.28477    1.000
    N47      N        0.20593    0.42347    0.44257    1.000
    N48      N        0.14783    0.34007    0.42347    1.000
    O139     O        0.99413    0.09197    0.35197    1.000
    O140     O        0.91703    0.00797    0.35067    1.000
    O141     O        0.83323    0.12567    0.29797    1.000
    O142     O        0.75733    0.32547    0.22937    1.000
    O143     O        0.67363    0.24747    0.23417    1.000
    O144     O        0.79473    0.16687    0.28297    1.000
    O145     O        0.29293    0.59607    0.50437    1.000
    O146     O        0.26403    0.54597    0.53057    1.000
    O147     O        0.19323    0.35257    0.47367    1.000
    O148     O        0.05803    0.12097    0.38447    1.000
    O149     O        0.02963    0.06797    0.41087    1.000
    O150     O        0.15483    0.28357    0.45427    1.000
    Zn29     Zn       0.03291    0.07140    0.36615    1.000
    Zn30     Zn       0.29875    0.59582    0.55064    1.000
    C765     C        0.00583    0.53577    0.13077    1.000
    C766     C        0.86713    0.17897    0.27987    1.000
    C767     C        0.01423    0.48447    0.13497    1.000
    C768     C        0.82943    0.14667    0.28467    1.000
    C769     C        0.82890    0.41720    0.66639    1.000
    C770     C        0.85250    0.39110    0.65890    1.000
    C771     C        0.89530    0.41720    0.64740    1.000
    C772     C        0.91470    0.46960    0.64340    1.000
    C773     C        0.89110    0.49570    0.65090    1.000
    C774     C        0.84820    0.46950    0.66240    1.000
    C775     C        0.78120    0.38840    0.67930    1.000
    C776     C        0.17180    0.59000    0.58166    1.000
    C777     C        0.14880    0.54040    0.58920    1.000
    C778     C        0.10520    0.52290    0.60040    1.000
    C779     C        0.08470    0.55510    0.60400    1.000
    C780     C        0.10770    0.60470    0.59650    1.000
    C781     C        0.15130    0.62220    0.58530    1.000
    C782     C        0.90920    0.55350    0.64660    1.000
    C783     C        0.91360    0.08370    0.83470    1.000
    C784     C        0.90650    0.07660    0.81580    1.000
    C785     C        0.87800    0.09490    0.80650    1.000
    C786     C        0.85650    0.12020    0.81600    1.000
    C787     C        0.86360    0.12740    0.83490    1.000
    C788     C        0.89210    0.10910    0.84430    1.000
    C789     C        0.96090    0.58490    0.65120    1.000
    C790     C        0.74420    0.25110    0.74910    1.000
    C791     C        0.77200    0.22750    0.74320    1.000
    C792     C        0.78850    0.20370    0.75580    1.000
    C793     C        0.77710    0.20330    0.77440    1.000
    C794     C        0.74930    0.22690    0.78030    1.000
    C795     C        0.73280    0.25080    0.76760    1.000
    C796     C        0.87400    0.56500    0.65570    1.000
    C797     C        0.90240    0.55940    0.62790    1.000
    C798     C        0.91330    0.38420    0.64100    1.000
    C799     C        0.22030    0.60770    0.56920    1.000
    C800     C        0.08350    0.63980    0.60110    1.000
    C801     C        0.11230    0.68860    0.59230    1.000
    C802     C        0.08420    0.64640    0.62010    1.000
    C803     C        0.03190    0.61540    0.59570    1.000
    C804     C        0.08800    0.47170    0.60660    1.000
    C805     C        0.97590    0.36830    0.62670    1.000
    C806     C        0.94670    0.30760    0.62780    1.000
    C807     C        0.96380    0.27800    0.61660    1.000
    C808     C        0.01140    0.30750    0.60630    1.000
    C809     C        0.05310    0.36130    0.61270    1.000
    C810     C        0.02970    0.39360    0.62450    1.000
    C811     C        0.94490    0.06360    0.84540    1.000
    C812     C        0.84150    0.15710    0.84610    1.000
    C813     C        0.79230    0.14900    0.84200    1.000
    C814     C        0.87500    0.21100    0.84560    1.000
    C815     C        0.84000    0.14400    0.86500    1.000
    C816     C        0.87500    0.08670    0.78730    1.000
    C817     C        0.72490    0.27800    0.73570    1.000
    C818     C        0.73370    0.22970    0.80070    1.000
    C819     C        0.69000    0.18100    0.80540    1.000
    C820     C        0.71670    0.26670    0.80260    1.000
    C821     C        0.77430    0.24400    0.81340    1.000
    C822     C        0.81760    0.18240    0.74790    1.000
    C823     C        0.89280    0.12780    0.75730    1.000
    C824     C        0.93990    0.11990    0.75040    1.000
    C825     C        0.97140    0.15090    0.73430    1.000
    C826     C        0.94370    0.16370    0.72090    1.000
    C827     C        0.89610    0.16910    0.72610    1.000
    C828     C        0.89380    0.17070    0.74880    1.000
    Cl25     Cl       0.05890    0.51560    0.65570    1.000
    Cl26     Cl       0.92390    0.25300    0.79150    1.000
    Mn25     Mn       0.01030    0.47760    0.63112    1.000
    Mn26     Mn       0.85710    0.17500    0.78482    1.000
    N49      N        0.96190    0.40060    0.63520    1.000
    N50      N        0.04790    0.44630    0.61810    1.000
    N51      N        0.88420    0.12740    0.77590    1.000
    N52      N        0.85890    0.18550    0.75680    1.000
    O151     O        0.76450    0.33920    0.68530    1.000
    O152     O        0.75760    0.41630    0.68400    1.000
    O153     O        0.95910    0.50010    0.63130    1.000
    O154     O        0.23480    0.57600    0.56270    1.000
    O155     O        0.24050    0.65970    0.56750    1.000
    O156     O        0.03880    0.53860    0.61630    1.000
    O157     O        0.96980    0.04040    0.83770    1.000
    O158     O        0.94860    0.06930    0.86390    1.000
    O159     O        0.82600    0.14010    0.80700    1.000
    O160     O        0.72960    0.27530    0.71780    1.000
    O161     O        0.70500    0.30370    0.74420    1.000
    O162     O        0.79540    0.17850    0.78760    1.000
    Zn31     Zn       0.70515    0.30042    0.69948    1.000
    Zn32     Zn       0.96373    0.03458    0.88397    1.000
    C829     C        0.19660    0.32750    0.46410    1.000
    C830     C        0.97850    0.46620    0.61320    1.000
    C831     C        0.13690    0.31910    0.46830    1.000
    C832     C        0.98390    0.50390    0.61800    1.000
    C833     C        0.49557    0.75053    0.99972    1.000
    C834     C        0.51917    0.72443    0.99223    1.000
    C835     C        0.56197    0.75053    0.98073    1.000
    C836     C        0.58137    0.80293    0.97673    1.000
    C837     C        0.55777    0.82903    0.98423    1.000
    C838     C        0.51487    0.80283    0.99573    1.000
    C839     C        0.44787    0.72173    0.01263    1.000
    C840     C        0.83847    0.92333    0.91499    1.000
    C841     C        0.81547    0.87373    0.92253    1.000
    C842     C        0.77187    0.85623    0.93373    1.000
    C843     C        0.75137    0.88843    0.93733    1.000
    C844     C        0.77437    0.93803    0.92983    1.000
    C845     C        0.81797    0.95553    0.91863    1.000
    C846     C        0.57587    0.88683    0.97993    1.000
    C847     C        0.58027    0.41703    0.16803    1.000
    C848     C        0.57317    0.40993    0.14913    1.000
    C849     C        0.54467    0.42823    0.13983    1.000
    C850     C        0.52317    0.45353    0.14933    1.000
    C851     C        0.53027    0.46073    0.16823    1.000
    C852     C        0.55877    0.44243    0.17763    1.000
    C853     C        0.62757    0.91823    0.98453    1.000
    C854     C        0.41087    0.58443    0.08243    1.000
    C855     C        0.43867    0.56083    0.07653    1.000
    C856     C        0.45517    0.53703    0.08913    1.000
    C857     C        0.44377    0.53663    0.10773    1.000
    C858     C        0.41597    0.56023    0.11363    1.000
    C859     C        0.39947    0.58413    0.10093    1.000
    C860     C        0.54067    0.89833    0.98903    1.000
    C861     C        0.56907    0.89273    0.96123    1.000
    C862     C        0.57997    0.71753    0.97433    1.000
    C863     C        0.88697    0.94103    0.90253    1.000
    C864     C        0.75017    0.97313    0.93443    1.000
    C865     C        0.77897    0.02193    0.92563    1.000
    C866     C        0.75087    0.97973    0.95343    1.000
    C867     C        0.69857    0.94873    0.92903    1.000
    C868     C        0.75467    0.80503    0.93993    1.000
    C869     C        0.64257    0.70163    0.96003    1.000
    C870     C        0.61337    0.64093    0.96113    1.000
    C871     C        0.63047    0.61133    0.94993    1.000
    C872     C        0.67807    0.64083    0.93963    1.000
    C873     C        0.71977    0.69463    0.94603    1.000
    C874     C        0.69637    0.72693    0.95783    1.000
    C875     C        0.61157    0.39693    0.17873    1.000
    C876     C        0.50817    0.49043    0.17943    1.000
    C877     C        0.45897    0.48233    0.17533    1.000
    C878     C        0.54167    0.54433    0.17893    1.000
    C879     C        0.50667    0.47733    0.19833    1.000
    C880     C        0.54167    0.42003    0.12063    1.000
    C881     C        0.39157    0.61133    0.06903    1.000
    C882     C        0.40037    0.56303    0.13403    1.000
    C883     C        0.35667    0.51433    0.13873    1.000
    C884     C        0.38337    0.60003    0.13593    1.000
    C885     C        0.44097    0.57733    0.14673    1.000
    C886     C        0.48427    0.51573    0.08123    1.000
    C887     C        0.55947    0.46113    0.09063    1.000
    C888     C        0.60657    0.45323    0.08373    1.000
    C889     C        0.63807    0.48423    0.06763    1.000
    C890     C        0.61037    0.49703    0.05423    1.000
    C891     C        0.56277    0.50243    0.05943    1.000
    C892     C        0.56047    0.50403    0.08213    1.000
    Cl27     Cl       0.72557    0.84893    0.98903    1.000
    Cl28     Cl       0.59057    0.58633    0.12483    1.000
    Mn27     Mn       0.67697    0.81093    0.96445    1.000
    Mn28     Mn       0.52377    0.50833    0.11815    1.000
    N53      N        0.62857    0.73393    0.96853    1.000
    N54      N        0.71457    0.77963    0.95143    1.000
    N55      N        0.55087    0.46073    0.10923    1.000
    N56      N        0.52557    0.51883    0.09013    1.000
    O163     O        0.43117    0.67253    0.01863    1.000
    O164     O        0.42427    0.74963    0.01733    1.000
    O165     O        0.62577    0.83343    0.96463    1.000
    O166     O        0.90147    0.90933    0.89603    1.000
    O167     O        0.90717    0.99303    0.90083    1.000
    O168     O        0.70547    0.87193    0.94963    1.000
    O169     O        0.63647    0.37373    0.17103    1.000
    O170     O        0.61527    0.40263    0.19723    1.000
    O171     O        0.49267    0.47343    0.14033    1.000
    O172     O        0.39627    0.60863    0.05113    1.000
    O173     O        0.37167    0.63703    0.07753    1.000
    O174     O        0.46207    0.51183    0.12093    1.000
    Zn33     Zn       0.37182    0.63375    0.03281    1.000
    Zn34     Zn       0.63040    0.36791    0.21730    1.000
    C893     C        0.86327    0.66083    0.79743    1.000
    C894     C        0.64517    0.79953    0.94653    1.000
    C895     C        0.80357    0.65243    0.80163    1.000
    C896     C        0.65057    0.83723    0.95133    1.000
    C897     C        0.16223    0.08387    0.33306    1.000
    C898     C        0.18583    0.05777    0.32557    1.000
    C899     C        0.22863    0.08387    0.31407    1.000
    C900     C        0.24803    0.13627    0.31007    1.000
    C901     C        0.22443    0.16237    0.31757    1.000
    C902     C        0.18153    0.13617    0.32907    1.000
    C903     C        0.11453    0.05507    0.34597    1.000
    C904     C        0.50513    0.25667    0.24833    1.000
    C905     C        0.48213    0.20707    0.25587    1.000
    C906     C        0.43853    0.18957    0.26707    1.000
    C907     C        0.41803    0.22177    0.27067    1.000
    C908     C        0.44103    0.27137    0.26317    1.000
    C909     C        0.48463    0.28887    0.25197    1.000
    C910     C        0.24253    0.22017    0.31327    1.000
    C911     C        0.24693    0.75037    0.50137    1.000
    C912     C        0.23983    0.74327    0.48247    1.000
    C913     C        0.21133    0.76157    0.47317    1.000
    C914     C        0.18983    0.78687    0.48267    1.000
    C915     C        0.19693    0.79407    0.50157    1.000
    C916     C        0.22543    0.77577    0.51097    1.000
    C917     C        0.29423    0.25157    0.31787    1.000
    C918     C        0.07753    0.91777    0.41577    1.000
    C919     C        0.10533    0.89417    0.40987    1.000
    C920     C        0.12183    0.87037    0.42247    1.000
    C921     C        0.11043    0.86997    0.44107    1.000
    C922     C        0.08263    0.89357    0.44697    1.000
    C923     C        0.06613    0.91747    0.43427    1.000
    C924     C        0.20733    0.23167    0.32237    1.000
    C925     C        0.23573    0.22607    0.29457    1.000
    C926     C        0.24663    0.05087    0.30767    1.000
    C927     C        0.55363    0.27437    0.23587    1.000
    C928     C        0.41683    0.30647    0.26777    1.000
    C929     C        0.44563    0.35527    0.25897    1.000
    C930     C        0.41753    0.31307    0.28677    1.000
    C931     C        0.36523    0.28207    0.26237    1.000
    C932     C        0.42133    0.13837    0.27327    1.000
    C933     C        0.30923    0.03497    0.29337    1.000
    C934     C        0.28003    0.97427    0.29447    1.000
    C935     C        0.29713    0.94467    0.28327    1.000
    C936     C        0.34473    0.97417    0.27297    1.000
    C937     C        0.38643    0.02797    0.27937    1.000
    C938     C        0.36303    0.06027    0.29117    1.000
    C939     C        0.27823    0.73027    0.51207    1.000
    C940     C        0.17483    0.82377    0.51277    1.000
    C941     C        0.12563    0.81567    0.50867    1.000
    C942     C        0.20833    0.87767    0.51227    1.000
    C943     C        0.17333    0.81067    0.53167    1.000
    C944     C        0.20833    0.75337    0.45397    1.000
    C945     C        0.05823    0.94467    0.40237    1.000
    C946     C        0.06703    0.89637    0.46737    1.000
    C947     C        0.02333    0.84767    0.47207    1.000
    C948     C        0.05003    0.93337    0.46927    1.000
    C949     C        0.10763    0.91067    0.48007    1.000
    C950     C        0.15093    0.84907    0.41457    1.000
    C951     C        0.22613    0.79447    0.42397    1.000
    C952     C        0.27323    0.78657    0.41707    1.000
    C953     C        0.30473    0.81757    0.40097    1.000
    C954     C        0.27703    0.83037    0.38757    1.000
    C955     C        0.22943    0.83577    0.39277    1.000
    C956     C        0.22713    0.83737    0.41547    1.000
    Cl29     Cl       0.39223    0.18227    0.32237    1.000
    Cl30     Cl       0.25723    0.91967    0.45817    1.000
    Mn29     Mn       0.34363    0.14427    0.29779    1.000
    Mn30     Mn       0.19043    0.84167    0.45149    1.000
    N57      N        0.29523    0.06727    0.30187    1.000
    N58      N        0.38123    0.11297    0.28477    1.000
    N59      N        0.21753    0.79407    0.44257    1.000
    N60      N        0.19223    0.85217    0.42347    1.000
    O175     O        0.09783    0.00587    0.35197    1.000
    O176     O        0.09093    0.08297    0.35067    1.000
    O177     O        0.29243    0.16677    0.29797    1.000
    O178     O        0.56813    0.24267    0.22937    1.000
    O179     O        0.57383    0.32637    0.23417    1.000
    O180     O        0.37213    0.20527    0.28297    1.000
    O181     O        0.30313    0.70707    0.50437    1.000
    O182     O        0.28193    0.73597    0.53057    1.000
    O183     O        0.15933    0.80677    0.47367    1.000
    O184     O        0.06293    0.94197    0.38447    1.000
    O185     O        0.03833    0.97037    0.41087    1.000
    O186     O        0.12873    0.84517    0.45427    1.000
    Zn35     Zn       0.03848    0.96709    0.36615    1.000
    Zn36     Zn       0.29706    0.70125    0.55064    1.000
    C957     C        0.52993    0.99417    0.13077    1.000
    C958     C        0.31183    0.13287    0.27987    1.000
    C959     C        0.47023    0.98577    0.13497    1.000
    C960     C        0.31723    0.17057    0.28467    1.000
    C961     C        0.58830    0.17110    0.66639    1.000
    C962     C        0.53860    0.14750    0.65890    1.000
    C963     C        0.52190    0.10470    0.64740    1.000
    C964     C        0.55490    0.08530    0.64340    1.000
    C965     C        0.60460    0.10890    0.65090    1.000
    C966     C        0.62130    0.15180    0.66240    1.000
    C967     C        0.60720    0.21880    0.67930    1.000
    C968     C        0.41820    0.82820    0.58166    1.000
    C969     C        0.39160    0.85120    0.58920    1.000
    C970     C        0.41770    0.89480    0.60040    1.000
    C971     C        0.47040    0.91530    0.60400    1.000
    C972     C        0.49700    0.89230    0.59650    1.000
    C973     C        0.47090    0.84870    0.58530    1.000
    C974     C        0.64430    0.09080    0.64660    1.000
    C975     C        0.17010    0.08640    0.83470    1.000
    C976     C        0.17010    0.09350    0.81580    1.000
    C977     C        0.21690    0.12200    0.80650    1.000
    C978     C        0.26370    0.14350    0.81600    1.000
    C979     C        0.26380    0.13640    0.83490    1.000
    C980     C        0.21700    0.10790    0.84430    1.000
    C981     C        0.62400    0.03910    0.65120    1.000
    C982     C        0.50690    0.25580    0.74910    1.000
    C983     C        0.45550    0.22800    0.74320    1.000
    C984     C        0.41520    0.21150    0.75580    1.000
    C985     C        0.42620    0.22290    0.77440    1.000
    C986     C        0.47760    0.25070    0.78030    1.000
    C987     C        0.51800    0.26720    0.76760    1.000
    C988     C        0.69100    0.12600    0.65570    1.000
    C989     C        0.65700    0.09760    0.62790    1.000
    C990     C        0.47090    0.08670    0.64100    1.000
    C991     C        0.38740    0.77970    0.56920    1.000
    C992     C        0.55630    0.91650    0.60110    1.000
    C993     C        0.57630    0.88770    0.59230    1.000
    C994     C        0.56220    0.91580    0.62010    1.000
    C995     C        0.58350    0.96810    0.59570    1.000
    C996     C        0.38370    0.91200    0.60660    1.000
    C997     C        0.39240    0.02410    0.62670    1.000
    C998     C        0.36090    0.05330    0.62780    1.000
    C999     C        0.31420    0.03620    0.61660    1.000
    C1000    C        0.29610    0.98860    0.60630    1.000
    C1001    C        0.30820    0.94690    0.61270    1.000
    C1002    C        0.36390    0.97030    0.62450    1.000
    C1003    C        0.11870    0.05510    0.84540    1.000
    C1004    C        0.31560    0.15850    0.84610    1.000
    C1005    C        0.35670    0.20770    0.84200    1.000
    C1006    C        0.33600    0.12500    0.84560    1.000
    C1007    C        0.30400    0.16000    0.86500    1.000
    C1008    C        0.21170    0.12500    0.78730    1.000
    C1009    C        0.55310    0.27510    0.73570    1.000
    C1010    C        0.49600    0.26630    0.80070    1.000
    C1011    C        0.49100    0.31000    0.80540    1.000
    C1012    C        0.55000    0.28330    0.80260    1.000
    C1013    C        0.46970    0.22570    0.81340    1.000
    C1014    C        0.36480    0.18240    0.74790    1.000
    C1015    C        0.23500    0.10720    0.75730    1.000
    C1016    C        0.18000    0.06010    0.75040    1.000
    C1017    C        0.17950    0.02860    0.73430    1.000
    C1018    C        0.22000    0.05630    0.72090    1.000
    C1019    C        0.27300    0.10390    0.72610    1.000
    C1020    C        0.27690    0.10620    0.74880    1.000
    Cl31     Cl       0.45670    0.94110    0.65570    1.000
    Cl32     Cl       0.32910    0.07610    0.79150    1.000
    Mn31     Mn       0.46730    0.98970    0.63112    1.000
    Mn32     Mn       0.31790    0.14290    0.78482    1.000
    N61      N        0.43870    0.03810    0.63520    1.000
    N62      N        0.39840    0.95210    0.61810    1.000
    N63      N        0.24320    0.11580    0.77590    1.000
    N64      N        0.32660    0.14110    0.75680    1.000
    O187     O        0.57470    0.23550    0.68530    1.000
    O188     O        0.65870    0.24240    0.68400    1.000
    O189     O        0.54100    0.04090    0.63130    1.000
    O190     O        0.34120    0.76520    0.56270    1.000
    O191     O        0.41920    0.75950    0.56750    1.000
    O192     O        0.49980    0.96120    0.61630    1.000
    O193     O        0.07060    0.03020    0.83770    1.000
    O194     O        0.12070    0.05140    0.86390    1.000
    O195     O        0.31410    0.17400    0.80700    1.000
    O196     O        0.54570    0.27040    0.71780    1.000
    O197     O        0.59870    0.29500    0.74420    1.000
    O198     O        0.38310    0.20460    0.78760    1.000
    Zn37     Zn       0.59527    0.29485    0.69948    1.000
    Zn38     Zn       0.07085    0.03627    0.88397    1.000
    C1021    C        0.13090    0.80340    0.46410    1.000
    C1022    C        0.48770    0.02150    0.61320    1.000
    C1023    C        0.18220    0.86310    0.46830    1.000
    C1024    C        0.52000    0.01610    0.61800    1.000
    C1025    C        0.25497    0.50443    0.99972    1.000
    C1026    C        0.20527    0.48083    0.99223    1.000
    C1027    C        0.18857    0.43803    0.98073    1.000
    C1028    C        0.22157    0.41863    0.97673    1.000
    C1029    C        0.27127    0.44223    0.98423    1.000
    C1030    C        0.28797    0.48513    0.99573    1.000
    C1031    C        0.27387    0.55213    0.01263    1.000
    C1032    C        0.08487    0.16153    0.91499    1.000
    C1033    C        0.05827    0.18453    0.92253    1.000
    C1034    C        0.08437    0.22813    0.93373    1.000
    C1035    C        0.13707    0.24863    0.93733    1.000
    C1036    C        0.16367    0.22563    0.92983    1.000
    C1037    C        0.13757    0.18203    0.91863    1.000
    C1038    C        0.31097    0.42413    0.97993    1.000
    C1039    C        0.83677    0.41973    0.16803    1.000
    C1040    C        0.83677    0.42683    0.14913    1.000
    C1041    C        0.88357    0.45533    0.13983    1.000
    C1042    C        0.93037    0.47683    0.14933    1.000
    C1043    C        0.93047    0.46973    0.16823    1.000
    C1044    C        0.88367    0.44123    0.17763    1.000
    C1045    C        0.29067    0.37243    0.98453    1.000
    C1046    C        0.17357    0.58913    0.08243    1.000
    C1047    C        0.12217    0.56133    0.07653    1.000
    C1048    C        0.08187    0.54483    0.08913    1.000
    C1049    C        0.09287    0.55623    0.10773    1.000
    C1050    C        0.14427    0.58403    0.11363    1.000
    C1051    C        0.18467    0.60053    0.10093    1.000
    C1052    C        0.35767    0.45933    0.98903    1.000
    C1053    C        0.32367    0.43093    0.96123    1.000
    C1054    C        0.13757    0.42003    0.97433    1.000
    C1055    C        0.05407    0.11303    0.90253    1.000
    C1056    C        0.22297    0.24983    0.93443    1.000
    C1057    C        0.24297    0.22103    0.92563    1.000
    C1058    C        0.22887    0.24913    0.95343    1.000
    C1059    C        0.25017    0.30143    0.92903    1.000
    C1060    C        0.05037    0.24533    0.93993    1.000
    C1061    C        0.05907    0.35743    0.96003    1.000
    C1062    C        0.02757    0.38663    0.96113    1.000
    C1063    C        0.98087    0.36953    0.94993    1.000
    C1064    C        0.96277    0.32193    0.93963    1.000
    C1065    C        0.97487    0.28023    0.94603    1.000
    C1066    C        0.03057    0.30363    0.95783    1.000
    C1067    C        0.78537    0.38843    0.17873    1.000
    C1068    C        0.98227    0.49183    0.17943    1.000
    C1069    C        0.02337    0.54103    0.17533    1.000
    C1070    C        0.00267    0.45833    0.17893    1.000
    C1071    C        0.97067    0.49333    0.19833    1.000
    C1072    C        0.87837    0.45833    0.12063    1.000
    C1073    C        0.21977    0.60843    0.06903    1.000
    C1074    C        0.16267    0.59963    0.13403    1.000
    C1075    C        0.15767    0.64333    0.13873    1.000
    C1076    C        0.21667    0.61663    0.13593    1.000
    C1077    C        0.13637    0.55903    0.14673    1.000
    C1078    C        0.03147    0.51573    0.08123    1.000
    C1079    C        0.90167    0.44053    0.09063    1.000
    C1080    C        0.84667    0.39343    0.08373    1.000
    C1081    C        0.84617    0.36193    0.06763    1.000
    C1082    C        0.88667    0.38963    0.05423    1.000
    C1083    C        0.93967    0.43723    0.05943    1.000
    C1084    C        0.94357    0.43953    0.08213    1.000
    Cl33     Cl       0.12337    0.27443    0.98903    1.000
    Cl34     Cl       0.99577    0.40943    0.12483    1.000
    Mn33     Mn       0.13397    0.32303    0.96445    1.000
    Mn34     Mn       0.98457    0.47623    0.11815    1.000
    N65      N        0.10537    0.37143    0.96853    1.000
    N66      N        0.06507    0.28543    0.95143    1.000
    N67      N        0.90987    0.44913    0.10923    1.000
    N68      N        0.99327    0.47443    0.09013    1.000
    O199     O        0.24137    0.56883    0.01863    1.000
    O200     O        0.32537    0.57573    0.01733    1.000
    O201     O        0.20767    0.37423    0.96463    1.000
    O202     O        0.00787    0.09853    0.89603    1.000
    O203     O        0.08587    0.09283    0.90083    1.000
    O204     O        0.16647    0.29453    0.94963    1.000
    O205     O        0.73727    0.36353    0.17103    1.000
    O206     O        0.78737    0.38473    0.19723    1.000
    O207     O        0.98077    0.50733    0.14033    1.000
    O208     O        0.21237    0.60373    0.05113    1.000
    O209     O        0.26537    0.62833    0.07753    1.000
    O210     O        0.04977    0.53793    0.12093    1.000
    Zn39     Zn       0.26194    0.62818    0.03281    1.000
    Zn40     Zn       0.73752    0.36960    0.21730    1.000
    C1085    C        0.79757    0.13673    0.79743    1.000
    C1086    C        0.15437    0.35483    0.94653    1.000
    C1087    C        0.84887    0.19643    0.80163    1.000
    C1088    C        0.18667    0.34943    0.95133    1.000
    C1089    C        0.92163    0.83777    0.33306    1.000
    C1090    C        0.87193    0.81417    0.32557    1.000
    C1091    C        0.85523    0.77137    0.31407    1.000
    C1092    C        0.88823    0.75197    0.31007    1.000
    C1093    C        0.93793    0.77557    0.31757    1.000
    C1094    C        0.95463    0.81847    0.32907    1.000
    C1095    C        0.94053    0.88547    0.34597    1.000
    C1096    C        0.75153    0.49487    0.24833    1.000
    C1097    C        0.72493    0.51787    0.25587    1.000
    C1098    C        0.75103    0.56147    0.26707    1.000
    C1099    C        0.80373    0.58197    0.27067    1.000
    C1100    C        0.83033    0.55897    0.26317    1.000
    C1101    C        0.80423    0.51537    0.25197    1.000
    C1102    C        0.97763    0.75747    0.31327    1.000
    C1103    C        0.50343    0.75307    0.50137    1.000
    C1104    C        0.50343    0.76017    0.48247    1.000
    C1105    C        0.55023    0.78867    0.47317    1.000
    C1106    C        0.59703    0.81017    0.48267    1.000
    C1107    C        0.59713    0.80307    0.50157    1.000
    C1108    C        0.55033    0.77457    0.51097    1.000
    C1109    C        0.95733    0.70577    0.31787    1.000
    C1110    C        0.84023    0.92247    0.41577    1.000
    C1111    C        0.78883    0.89467    0.40987    1.000
    C1112    C        0.74853    0.87817    0.42247    1.000
    C1113    C        0.75953    0.88957    0.44107    1.000
    C1114    C        0.81093    0.91737    0.44697    1.000
    C1115    C        0.85133    0.93387    0.43427    1.000
    C1116    C        0.02433    0.79267    0.32237    1.000
    C1117    C        0.99033    0.76427    0.29457    1.000
    C1118    C        0.80423    0.75337    0.30767    1.000
    C1119    C        0.72073    0.44637    0.23587    1.000
    C1120    C        0.88963    0.58317    0.26777    1.000
    C1121    C        0.90963    0.55437    0.25897    1.000
    C1122    C        0.89553    0.58247    0.28677    1.000
    C1123    C        0.91683    0.63477    0.26237    1.000
    C1124    C        0.71703    0.57867    0.27327    1.000
    C1125    C        0.72573    0.69077    0.29337    1.000
    C1126    C        0.69423    0.71997    0.29447    1.000
    C1127    C        0.64753    0.70287    0.28327    1.000
    C1128    C        0.62943    0.65527    0.27297    1.000
    C1129    C        0.64153    0.61357    0.27937    1.000
    C1130    C        0.69723    0.63697    0.29117    1.000
    C1131    C        0.45203    0.72177    0.51207    1.000
    C1132    C        0.64893    0.82517    0.51277    1.000
    C1133    C        0.69003    0.87437    0.50867    1.000
    C1134    C        0.66933    0.79167    0.51227    1.000
    C1135    C        0.63733    0.82667    0.53167    1.000
    C1136    C        0.54503    0.79167    0.45397    1.000
    C1137    C        0.88643    0.94177    0.40237    1.000
    C1138    C        0.82933    0.93297    0.46737    1.000
    C1139    C        0.82433    0.97667    0.47207    1.000
    C1140    C        0.88333    0.94997    0.46927    1.000
    C1141    C        0.80303    0.89237    0.48007    1.000
    C1142    C        0.69813    0.84907    0.41457    1.000
    C1143    C        0.56833    0.77387    0.42397    1.000
    C1144    C        0.51333    0.72677    0.41707    1.000
    C1145    C        0.51283    0.69527    0.40097    1.000
    C1146    C        0.55333    0.72297    0.38757    1.000
    C1147    C        0.60633    0.77057    0.39277    1.000
    C1148    C        0.61023    0.77287    0.41547    1.000
    Cl35     Cl       0.79003    0.60777    0.32237    1.000
    Cl36     Cl       0.66243    0.74277    0.45817    1.000
    Mn35     Mn       0.80063    0.65637    0.29779    1.000
    Mn36     Mn       0.65123    0.80957    0.45149    1.000
    N69      N        0.77203    0.70477    0.30187    1.000
    N70      N        0.73173    0.61877    0.28477    1.000
    N71      N        0.57653    0.78247    0.44257    1.000
    N72      N        0.65993    0.80777    0.42347    1.000
    O211     O        0.90803    0.90217    0.35197    1.000
    O212     O        0.99203    0.90907    0.35067    1.000
    O213     O        0.87433    0.70757    0.29797    1.000
    O214     O        0.67453    0.43187    0.22937    1.000
    O215     O        0.75253    0.42617    0.23417    1.000
    O216     O        0.83313    0.62787    0.28297    1.000
    O217     O        0.40393    0.69687    0.50437    1.000
    O218     O        0.45403    0.71807    0.53057    1.000
    O219     O        0.64743    0.84067    0.47367    1.000
    O220     O        0.87903    0.93707    0.38447    1.000
    O221     O        0.93203    0.96167    0.41087    1.000
    O222     O        0.71643    0.87127    0.45427    1.000
    Zn41     Zn       0.92860    0.96152    0.36615    1.000
    Zn42     Zn       0.40418    0.70294    0.55064    1.000
    C1149    C        0.46423    0.47007    0.13077    1.000
    C1150    C        0.82103    0.68817    0.27987    1.000
    C1151    C        0.51553    0.52977    0.13497    1.000
    C1152    C        0.85333    0.68277    0.28467    1.000
    Zn43     Zn       0.00000    0.00000    0.84823    1.000
    O223     O        0.00000    0.00000    0.87510    1.000
    Zn44     Zn       0.66667    0.33333    0.18156    1.000
    O224     O        0.66667    0.33333    0.20843    1.000
    Zn45     Zn       0.33333    0.66667    0.51490    1.000
    O225     O        0.33333    0.66667    0.54177    1.000
    Zn46     Zn       0.66667    0.33333    0.73484    1.000
    O226     O        0.66667    0.33333    0.70920    1.000
    Zn47     Zn       0.33333    0.66667    0.06817    1.000
    O227     O        0.33333    0.66667    0.04253    1.000
    Zn48     Zn       0.00000    0.00000    0.40151    1.000
    O228     O        0.00000    0.00000    0.37587    1.000
