# CIF file generated by openbabel 3.1.0, see https://openbabel.org
data_I
_chemical_name_common 'image0'
_cell_length_a 6.8419
_cell_length_b 12.0877
_cell_length_c 14.207
_cell_angle_alpha 90
_cell_angle_beta 122.547
_cell_angle_gamma 90
_space_group_name_H-M_alt 'P 1'
_space_group_name_Hall 'P 1'
loop_
    _symmetry_equiv_pos_as_xyz
    x,y,z
loop_
    _atom_site_label
    _atom_site_type_symbol
    _atom_site_fract_x
    _atom_site_fract_y
    _atom_site_fract_z
    _atom_site_occupancy
    O1       O        0.24705    0.40015    0.11591    1.000
    O2       O        0.53844    0.36877    0.08438    1.000
    O3       O        0.45060    0.09330    0.37967    1.000
    O4       O        0.78276    0.11334    0.39942    1.000
    C1       C        0.42977    0.34699    0.13382    1.000
    C2       C        0.55444    0.26496    0.22203    1.000
    C3       C        0.45578    0.22792    0.27381    1.000
    C4       C        0.57869    0.14099    0.36040    1.000
    H1       H        0.72968    0.23217    0.24306    1.000
    H2       H        0.27772    0.25787    0.25162    1.000
    O5       O        0.81988    0.48269    0.05985    1.000
    H3       H        0.92295    0.52558    0.13066    1.000
    O6       O        0.75295    0.90015    0.38409    1.000
    O7       O        0.46156    0.86877    0.41562    1.000
    O8       O        0.54940    0.59330    0.12033    1.000
    O9       O        0.21724    0.61334    0.10058    1.000
    C5       C        0.57023    0.84699    0.36618    1.000
    C6       C        0.44556    0.76496    0.27797    1.000
    C7       C        0.54422    0.72792    0.22619    1.000
    C8       C        0.42131    0.64099    0.13960    1.000
    H4       H        0.27032    0.73217    0.25694    1.000
    H5       H        0.72228    0.75787    0.24838    1.000
    O10      O        0.18012    0.98269    0.44015    1.000
    H6       H        0.07705    0.02558    0.36934    1.000
    O11      O        0.75295    0.59985    0.88409    1.000
    O12      O        0.46156    0.63123    0.91562    1.000
    O13      O        0.54940    0.90670    0.62033    1.000
    O14      O        0.21724    0.88666    0.60058    1.000
    C9       C        0.57023    0.65301    0.86618    1.000
    C10      C        0.44556    0.73504    0.77797    1.000
    C11      C        0.54422    0.77208    0.72619    1.000
    C12      C        0.42131    0.85901    0.63960    1.000
    H7       H        0.27032    0.76783    0.75694    1.000
    H8       H        0.72228    0.74213    0.74838    1.000
    O15      O        0.18012    0.51731    0.94015    1.000
    H9       H        0.07705    0.47442    0.86934    1.000
    O16      O        0.24705    0.09985    0.61591    1.000
    O17      O        0.53844    0.13123    0.58438    1.000
    O18      O        0.45060    0.40670    0.87967    1.000
    O19      O        0.78276    0.38666    0.89942    1.000
    C13      C        0.42977    0.15301    0.63382    1.000
    C14      C        0.55444    0.23504    0.72203    1.000
    C15      C        0.45578    0.27208    0.77381    1.000
    C16      C        0.57869    0.35901    0.86040    1.000
    H10      H        0.72968    0.26783    0.74306    1.000
    H11      H        0.27772    0.24213    0.75162    1.000
    O20      O        0.81988    0.01731    0.55985    1.000
    H12      H        0.92295    0.97442    0.63066    1.000
    Al1      Al       0.50000    0.50000    0.00000    1.000
    Al2      Al       0.50000    0.00000    0.50000    1.000
    Al3      Al       0.00000    0.50000    0.00000    1.000
    Al4      Al       0.00000    0.00000    0.50000    1.000
