# CIF file generated by openbabel 3.1.0, see https://openbabel.org
data_I
_chemical_name_common 'image0'
_cell_length_a 8.7627
_cell_length_b 13.8117
_cell_length_c 16.6187
_cell_angle_alpha 90
_cell_angle_beta 92.68
_cell_angle_gamma 90
_space_group_name_H-M_alt 'P 1'
_space_group_name_Hall 'P 1'
loop_
    _symmetry_equiv_pos_as_xyz
    x,y,z
loop_
    _atom_site_label
    _atom_site_type_symbol
    _atom_site_fract_x
    _atom_site_fract_y
    _atom_site_fract_z
    _atom_site_occupancy
    Zn1      Zn       0.43729    0.39910    0.07522    1.000
    Zn2      Zn       0.54837    0.10993    0.07748    1.000
    Zn3      Zn       0.52121    0.24936    0.74927    1.000
    P1       P        0.51500    0.38328    0.89473    1.000
    H1       H        0.61140    0.31460    0.91890    1.000
    P2       P        0.50980    0.10673    0.88955    1.000
    H2       H        0.40160    0.17040    0.90300    1.000
    P3       P        0.75520    0.28658    0.12036    1.000
    H3       H        0.82710    0.26980    0.05370    1.000
    P4       P        0.23480    0.22513    0.11389    1.000
    H4       H        0.12080    0.24140    0.06090    1.000
    O1       O        0.40190    0.39630    0.96010    1.000
    O2       O        0.43200    0.34790    0.81780    1.000
    O3       O        0.60870    0.47390    0.87930    1.000
    O4       O        0.60330    0.14720    0.82160    1.000
    O5       O        0.60750    0.09730    0.96670    1.000
    O6       O        0.43050    0.01210    0.86430    1.000
    O7       O        0.68210    0.19180    0.14370    1.000
    O8       O        0.64680    0.37060    0.10220    1.000
    O9       O        0.87550    0.32040    0.18310    1.000
    O10      O        0.29980    0.32320    0.13710    1.000
    O11      O        0.16440    0.17750    0.18720    1.000
    O12      O        0.34280    0.15580    0.07380    1.000
    Zn4      Zn       0.06271    0.89910    0.42478    1.000
    Zn5      Zn       0.95163    0.60993    0.42252    1.000
    Zn6      Zn       0.97879    0.74936    0.75073    1.000
    P5       P        0.98500    0.88328    0.60527    1.000
    H5       H        0.88860    0.81460    0.58110    1.000
    P6       P        0.99020    0.60673    0.61045    1.000
    H6       H        0.09840    0.67040    0.59700    1.000
    P7       P        0.74480    0.78658    0.37964    1.000
    H7       H        0.67290    0.76980    0.44630    1.000
    P8       P        0.26520    0.72513    0.38611    1.000
    H8       H        0.37920    0.74140    0.43910    1.000
    O13      O        0.09810    0.89630    0.53990    1.000
    O14      O        0.06800    0.84790    0.68220    1.000
    O15      O        0.89130    0.97390    0.62070    1.000
    O16      O        0.89670    0.64720    0.67840    1.000
    O17      O        0.89250    0.59730    0.53330    1.000
    O18      O        0.06950    0.51210    0.63570    1.000
    O19      O        0.81790    0.69180    0.35630    1.000
    O20      O        0.85320    0.87060    0.39780    1.000
    O21      O        0.62450    0.82040    0.31690    1.000
    O22      O        0.20020    0.82320    0.36290    1.000
    O23      O        0.33560    0.67750    0.31280    1.000
    O24      O        0.15720    0.65580    0.42620    1.000
    Zn7      Zn       0.56271    0.60090    0.92478    1.000
    Zn8      Zn       0.45163    0.89007    0.92252    1.000
    Zn9      Zn       0.47879    0.75064    0.25073    1.000
    P9       P        0.48500    0.61672    0.10527    1.000
    H9       H        0.38860    0.68540    0.08110    1.000
    P10      P        0.49020    0.89327    0.11045    1.000
    H10      H        0.59840    0.82960    0.09700    1.000
    P11      P        0.24480    0.71342    0.87964    1.000
    H11      H        0.17290    0.73020    0.94630    1.000
    P12      P        0.76520    0.77487    0.88611    1.000
    H12      H        0.87920    0.75860    0.93910    1.000
    O25      O        0.59810    0.60370    0.03990    1.000
    O26      O        0.56800    0.65210    0.18220    1.000
    O27      O        0.39130    0.52610    0.12070    1.000
    O28      O        0.39670    0.85280    0.17840    1.000
    O29      O        0.39250    0.90270    0.03330    1.000
    O30      O        0.56950    0.98790    0.13570    1.000
    O31      O        0.31790    0.80820    0.85630    1.000
    O32      O        0.35320    0.62940    0.89780    1.000
    O33      O        0.12450    0.67960    0.81690    1.000
    O34      O        0.70020    0.67680    0.86290    1.000
    O35      O        0.83560    0.82250    0.81280    1.000
    O36      O        0.65720    0.84420    0.92620    1.000
    Zn10     Zn       0.93729    0.10090    0.57522    1.000
    Zn11     Zn       0.04837    0.39007    0.57748    1.000
    Zn12     Zn       0.02121    0.25064    0.24927    1.000
    P13      P        0.01500    0.11672    0.39473    1.000
    H13      H        0.11140    0.18540    0.41890    1.000
    P14      P        0.00980    0.39327    0.38955    1.000
    H14      H        0.90160    0.32960    0.40300    1.000
    P15      P        0.25520    0.21342    0.62036    1.000
    H15      H        0.32710    0.23020    0.55370    1.000
    P16      P        0.73480    0.27487    0.61389    1.000
    H16      H        0.62080    0.25860    0.56090    1.000
    O37      O        0.90190    0.10370    0.46010    1.000
    O38      O        0.93200    0.15210    0.31780    1.000
    O39      O        0.10870    0.02610    0.37930    1.000
    O40      O        0.10330    0.35280    0.32160    1.000
    O41      O        0.10750    0.40270    0.46670    1.000
    O42      O        0.93050    0.48790    0.36430    1.000
    O43      O        0.18210    0.30820    0.64370    1.000
    O44      O        0.14680    0.12940    0.60220    1.000
    O45      O        0.37550    0.17960    0.68310    1.000
    O46      O        0.79980    0.17680    0.63710    1.000
    O47      O        0.66440    0.32250    0.68720    1.000
    O48      O        0.84280    0.34420    0.57380    1.000
