# CIF file generated by openbabel 3.1.0, see https://openbabel.org
data_I
_chemical_name_common 'image0'
_cell_length_a 17.3974
_cell_length_b 11.6453
_cell_length_c 18.375
_cell_angle_alpha 90
_cell_angle_beta 110.319
_cell_angle_gamma 90
_space_group_name_H-M_alt 'P 1'
_space_group_name_Hall 'P 1'
loop_
    _symmetry_equiv_pos_as_xyz
    x,y,z
loop_
    _atom_site_label
    _atom_site_type_symbol
    _atom_site_fract_x
    _atom_site_fract_y
    _atom_site_fract_z
    _atom_site_occupancy
    Gd1      Gd       0.99877    0.58356    0.59425    1.000
    Gd2      Gd       0.50253    0.93123    0.39947    1.000
    S1       S        0.75579    0.79396    0.38899    1.000
    S2       S        0.74986    0.70412    0.58934    1.000
    S3       S        0.73507    0.22755    0.44019    1.000
    O1       O        0.59578    0.91940    0.33596    1.000
    O2       O        0.88271    0.31480    0.41234    1.000
    C1       C        0.88330    0.61170    0.70570    1.000
    O3       O        0.60550    0.81180    0.48312    1.000
    O4       O        0.91653    0.68010    0.47910    1.000
    C2       C        0.79810    0.33900    0.48740    1.000
    C3       C        0.81300    0.69280    0.68450    1.000
    C4       C        0.60880    0.16330    0.49320    1.000
    C5       C        0.80610    0.74500    0.27660    1.000
    H1       H        0.83630    0.71460    0.24820    1.000
    C6       C        0.78990    0.76490    0.73250    1.000
    H2       H        0.81730    0.77000    0.78570    1.000
    O5       O        0.59683    0.96370    0.21825    1.000
    O6       O        0.57689    0.93250    0.56289    1.000
    C7       C        0.62020    0.85300    0.55000    1.000
    O7       O        0.59030    0.09090    0.43950    1.000
    O8       O        0.91952    0.44630    0.50394    1.000
    C8       C        0.69100    0.80610    0.61340    1.000
    C9       C        0.67590    0.24450    0.49780    1.000
    C10      C        0.77370    0.38790    0.54260    1.000
    H3       H        0.79970    0.45020    0.57270    1.000
    C11      C        0.89620    0.66160    0.40790    1.000
    O9       O        0.57757    0.17440    0.54478    1.000
    C12      C        0.82540    0.72760    0.35500    1.000
    C13      C        0.70200    0.84610    0.29750    1.000
    C14      C        0.73610    0.81370    0.24380    1.000
    H4       H        0.71530    0.83470    0.19180    1.000
    C15      C        0.70380    0.33260    0.54900    1.000
    H5       H        0.67940    0.35440    0.58460    1.000
    C16      C        0.71980    0.83050    0.69140    1.000
    H6       H        0.69590    0.88400    0.71460    1.000
    O10      O        0.89851    0.56530    0.64898    1.000
    O11      O        0.92125    0.59200    0.77493    1.000
    O12      O        0.92930    0.59250    0.37504    1.000
    C17      C        0.62580    0.91370    0.28320    1.000
    C18      C        0.87010    0.36840    0.46660    1.000
    Gd3      Gd       0.00123    0.58356    0.90575    1.000
    Gd4      Gd       0.49747    0.93123    0.10053    1.000
    S4       S        0.24421    0.79396    0.11101    1.000
    S5       S        0.25014    0.70412    0.91066    1.000
    S6       S        0.26493    0.22755    0.05981    1.000
    O13      O        0.40422    0.91940    0.16404    1.000
    O14      O        0.11729    0.31480    0.08766    1.000
    C19      C        0.11670    0.61170    0.79430    1.000
    O15      O        0.39450    0.81180    0.01688    1.000
    O16      O        0.08347    0.68010    0.02090    1.000
    C20      C        0.20190    0.33900    0.01260    1.000
    C21      C        0.18700    0.69280    0.81550    1.000
    C22      C        0.39120    0.16330    0.00680    1.000
    C23      C        0.19390    0.74500    0.22340    1.000
    H7       H        0.16370    0.71460    0.25180    1.000
    C24      C        0.21010    0.76490    0.76750    1.000
    H8       H        0.18270    0.77000    0.71430    1.000
    O17      O        0.40317    0.96370    0.28175    1.000
    O18      O        0.42311    0.93250    0.93711    1.000
    C25      C        0.37980    0.85300    0.95000    1.000
    O19      O        0.40970    0.09090    0.06050    1.000
    O20      O        0.08048    0.44630    0.99606    1.000
    C26      C        0.30900    0.80610    0.88660    1.000
    C27      C        0.32410    0.24450    0.00220    1.000
    C28      C        0.22630    0.38790    0.95740    1.000
    H9       H        0.20030    0.45020    0.92730    1.000
    C29      C        0.10380    0.66160    0.09210    1.000
    O21      O        0.42243    0.17440    0.95522    1.000
    C30      C        0.17460    0.72760    0.14500    1.000
    C31      C        0.29800    0.84610    0.20250    1.000
    C32      C        0.26390    0.81370    0.25620    1.000
    H10      H        0.28470    0.83470    0.30820    1.000
    C33      C        0.29620    0.33260    0.95100    1.000
    H11      H        0.32060    0.35440    0.91540    1.000
    C34      C        0.28020    0.83050    0.80860    1.000
    H12      H        0.30410    0.88400    0.78540    1.000
    O22      O        0.10149    0.56530    0.85102    1.000
    O23      O        0.07875    0.59200    0.72507    1.000
    O24      O        0.07070    0.59250    0.12496    1.000
    C35      C        0.37420    0.91370    0.21680    1.000
    C36      C        0.12990    0.36840    0.03340    1.000
    Gd5      Gd       0.00123    0.41644    0.40574    1.000
    Gd6      Gd       0.49747    0.06877    0.60053    1.000
    S7       S        0.24421    0.20604    0.61101    1.000
    S8       S        0.25014    0.29588    0.41066    1.000
    S9       S        0.26493    0.77245    0.55981    1.000
    O25      O        0.40422    0.08060    0.66404    1.000
    O26      O        0.11729    0.68520    0.58766    1.000
    C37      C        0.11670    0.38830    0.29430    1.000
    O27      O        0.39450    0.18820    0.51688    1.000
    O28      O        0.08347    0.31990    0.52090    1.000
    C38      C        0.20190    0.66100    0.51260    1.000
    C39      C        0.18700    0.30720    0.31550    1.000
    C40      C        0.39120    0.83670    0.50680    1.000
    C41      C        0.19390    0.25500    0.72340    1.000
    H13      H        0.16370    0.28540    0.75180    1.000
    C42      C        0.21010    0.23510    0.26750    1.000
    H14      H        0.18270    0.23000    0.21430    1.000
    O29      O        0.40317    0.03630    0.78175    1.000
    O30      O        0.42311    0.06750    0.43711    1.000
    C43      C        0.37980    0.14700    0.45000    1.000
    O31      O        0.40970    0.90910    0.56050    1.000
    O32      O        0.08048    0.55370    0.49606    1.000
    C44      C        0.30900    0.19390    0.38660    1.000
    C45      C        0.32410    0.75550    0.50220    1.000
    C46      C        0.22630    0.61210    0.45740    1.000
    H15      H        0.20030    0.54980    0.42730    1.000
    C47      C        0.10380    0.33840    0.59210    1.000
    O33      O        0.42243    0.82560    0.45522    1.000
    C48      C        0.17460    0.27240    0.64500    1.000
    C49      C        0.29800    0.15390    0.70250    1.000
    C50      C        0.26390    0.18630    0.75620    1.000
    H16      H        0.28470    0.16530    0.80820    1.000
    C51      C        0.29620    0.66740    0.45100    1.000
    H17      H        0.32060    0.64560    0.41540    1.000
    C52      C        0.28020    0.16950    0.30860    1.000
    H18      H        0.30410    0.11600    0.28540    1.000
    O34      O        0.10149    0.43470    0.35102    1.000
    O35      O        0.07875    0.40800    0.22507    1.000
    O36      O        0.07070    0.40750    0.62496    1.000
    C53      C        0.37420    0.08630    0.71680    1.000
    C54      C        0.12990    0.63160    0.53340    1.000
    Gd7      Gd       0.99877    0.41644    0.09425    1.000
    Gd8      Gd       0.50253    0.06877    0.89947    1.000
    S10      S        0.75579    0.20604    0.88899    1.000
    S11      S        0.74986    0.29588    0.08934    1.000
    S12      S        0.73507    0.77245    0.94019    1.000
    O37      O        0.59578    0.08060    0.83596    1.000
    O38      O        0.88271    0.68520    0.91234    1.000
    C55      C        0.88330    0.38830    0.20570    1.000
    O39      O        0.60550    0.18820    0.98312    1.000
    O40      O        0.91653    0.31990    0.97910    1.000
    C56      C        0.79810    0.66100    0.98740    1.000
    C57      C        0.81300    0.30720    0.18450    1.000
    C58      C        0.60880    0.83670    0.99320    1.000
    C59      C        0.80610    0.25500    0.77660    1.000
    H19      H        0.83630    0.28540    0.74820    1.000
    C60      C        0.78990    0.23510    0.23250    1.000
    H20      H        0.81730    0.23000    0.28570    1.000
    O41      O        0.59683    0.03630    0.71825    1.000
    O42      O        0.57689    0.06750    0.06289    1.000
    C61      C        0.62020    0.14700    0.05000    1.000
    O43      O        0.59030    0.90910    0.93950    1.000
    O44      O        0.91952    0.55370    0.00394    1.000
    C62      C        0.69100    0.19390    0.11340    1.000
    C63      C        0.67590    0.75550    0.99780    1.000
    C64      C        0.77370    0.61210    0.04260    1.000
    H21      H        0.79970    0.54980    0.07270    1.000
    C65      C        0.89620    0.33840    0.90790    1.000
    O45      O        0.57757    0.82560    0.04478    1.000
    C66      C        0.82540    0.27240    0.85500    1.000
    C67      C        0.70200    0.15390    0.79750    1.000
    C68      C        0.73610    0.18630    0.74380    1.000
    H22      H        0.71530    0.16530    0.69180    1.000
    C69      C        0.70380    0.66740    0.04900    1.000
    H23      H        0.67940    0.64560    0.08460    1.000
    C70      C        0.71980    0.16950    0.19140    1.000
    H24      H        0.69590    0.11600    0.21460    1.000
    O46      O        0.89851    0.43470    0.14898    1.000
    O47      O        0.92125    0.40800    0.27493    1.000
    O48      O        0.92930    0.40750    0.87504    1.000
    C71      C        0.62580    0.08630    0.78320    1.000
    C72      C        0.87010    0.63160    0.96660    1.000
