# CIF file generated by openbabel 3.1.0, see https://openbabel.org
data_I
_chemical_name_common 'image0'
_cell_length_a 20.135
_cell_length_b 15.964
_cell_length_c 29.307
_cell_angle_alpha 90
_cell_angle_beta 90
_cell_angle_gamma 90
_space_group_name_H-M_alt 'P 1'
_space_group_name_Hall 'P 1'
loop_
    _symmetry_equiv_pos_as_xyz
    x,y,z
loop_
    _atom_site_label
    _atom_site_type_symbol
    _atom_site_fract_x
    _atom_site_fract_y
    _atom_site_fract_z
    _atom_site_occupancy
    N1       N        0.38350    0.08570    0.04782    1.000
    N2       N        0.17490    0.08180    0.05160    1.000
    O1       O        0.17440    0.02920    0.12347    1.000
    O2       O        0.17450    0.13240    0.97915    1.000
    C1       C        0.46050    0.27110    0.39020    1.000
    H1       H        0.44010    0.23780    0.41350    1.000
    C2       C        0.45830    0.24740    0.34510    1.000
    H2       H        0.43090    0.20100    0.33620    1.000
    C3       C        0.35060    0.01500    0.05610    1.000
    H3       H        0.37480    0.96620    0.06120    1.000
    C4       C        0.28200    0.01080    0.05760    1.000
    H4       H        0.26040    0.96020    0.06270    1.000
    C5       C        0.24660    0.08380    0.05130    1.000
    C6       C        0.27940    0.15700    0.04400    1.000
    H5       H        0.25640    0.20700    0.04000    1.000
    C7       C        0.34880    0.15500    0.04280    1.000
    H6       H        0.37160    0.20500    0.03820    1.000
    C8       C        0.14180    0.05120    0.09080    1.000
    C9       C        0.06950    0.04980    0.09030    1.000
    C10      C        0.03540    0.02070    0.12710    1.000
    H7       H        0.06500    0.99800    0.14900    1.000
    C11      C        0.03480    0.07860    0.05140    1.000
    C12      C        0.06930    0.10880    0.01250    1.000
    C13      C        0.03500    0.13750    0.97500    1.000
    H8       H        0.06000    0.15500    0.94400    1.000
    C14      C        0.14250    0.11030    0.01190    1.000
    N3       N        0.61650    0.41430    0.54782    1.000
    N4       N        0.82510    0.41820    0.55160    1.000
    O3       O        0.82560    0.47080    0.62347    1.000
    O4       O        0.82550    0.36760    0.47915    1.000
    C15      C        0.53950    0.22890    0.89020    1.000
    H9       H        0.55990    0.26220    0.91350    1.000
    C16      C        0.54170    0.25260    0.84510    1.000
    H10      H        0.56910    0.29900    0.83620    1.000
    C17      C        0.64940    0.48500    0.55610    1.000
    H11      H        0.62520    0.53380    0.56120    1.000
    C18      C        0.71800    0.48920    0.55760    1.000
    H12      H        0.73960    0.53980    0.56270    1.000
    C19      C        0.75340    0.41620    0.55130    1.000
    C20      C        0.72060    0.34300    0.54400    1.000
    H13      H        0.74360    0.29300    0.54000    1.000
    C21      C        0.65120    0.34500    0.54280    1.000
    H14      H        0.62840    0.29500    0.53820    1.000
    C22      C        0.85820    0.44880    0.59080    1.000
    C23      C        0.93050    0.45020    0.59030    1.000
    C24      C        0.96460    0.47930    0.62710    1.000
    H15      H        0.93500    0.50200    0.64900    1.000
    C25      C        0.96520    0.42140    0.55140    1.000
    C26      C        0.93070    0.39120    0.51250    1.000
    C27      C        0.96500    0.36250    0.47500    1.000
    H16      H        0.94000    0.34500    0.44400    1.000
    C28      C        0.85750    0.38970    0.51190    1.000
    N5       N        0.61650    0.58570    0.45218    1.000
    N6       N        0.82510    0.58180    0.44840    1.000
    O5       O        0.82560    0.52920    0.37653    1.000
    O6       O        0.82550    0.63240    0.52085    1.000
    C29      C        0.53950    0.77110    0.10980    1.000
    H17      H        0.55990    0.73780    0.08650    1.000
    C30      C        0.54170    0.74740    0.15490    1.000
    H18      H        0.56910    0.70100    0.16380    1.000
    C31      C        0.64940    0.51500    0.44390    1.000
    H19      H        0.62520    0.46620    0.43880    1.000
    C32      C        0.71800    0.51080    0.44240    1.000
    H20      H        0.73960    0.46020    0.43730    1.000
    C33      C        0.75340    0.58380    0.44870    1.000
    C34      C        0.72060    0.65700    0.45600    1.000
    H21      H        0.74360    0.70700    0.46000    1.000
    C35      C        0.65120    0.65500    0.45720    1.000
    H22      H        0.62840    0.70500    0.46180    1.000
    C36      C        0.85820    0.55120    0.40920    1.000
    C37      C        0.93050    0.54980    0.40970    1.000
    C38      C        0.96460    0.52070    0.37290    1.000
    H23      H        0.93500    0.49800    0.35100    1.000
    C39      C        0.96520    0.57860    0.44860    1.000
    C40      C        0.93070    0.60880    0.48750    1.000
    C41      C        0.96500    0.63750    0.52500    1.000
    H24      H        0.94000    0.65500    0.55600    1.000
    C42      C        0.85750    0.61030    0.48810    1.000
    N7       N        0.38350    0.91430    0.95218    1.000
    N8       N        0.17490    0.91820    0.94840    1.000
    O7       O        0.17440    0.97080    0.87653    1.000
    O8       O        0.17450    0.86760    0.02085    1.000
    C43      C        0.46050    0.72890    0.60980    1.000
    H25      H        0.44010    0.76220    0.58650    1.000
    C44      C        0.45830    0.75260    0.65490    1.000
    H26      H        0.43090    0.79900    0.66380    1.000
    C45      C        0.35060    0.98500    0.94390    1.000
    H27      H        0.37480    0.03380    0.93880    1.000
    C46      C        0.28200    0.98920    0.94240    1.000
    H28      H        0.26040    0.03980    0.93730    1.000
    C47      C        0.24660    0.91620    0.94870    1.000
    C48      C        0.27940    0.84300    0.95600    1.000
    H29      H        0.25640    0.79300    0.96000    1.000
    C49      C        0.34880    0.84500    0.95720    1.000
    H30      H        0.37160    0.79500    0.96180    1.000
    C50      C        0.14180    0.94880    0.90920    1.000
    C51      C        0.06950    0.95020    0.90970    1.000
    C52      C        0.03540    0.97930    0.87290    1.000
    H31      H        0.06500    0.00200    0.85100    1.000
    C53      C        0.03480    0.92140    0.94860    1.000
    C54      C        0.06930    0.89120    0.98750    1.000
    C55      C        0.03500    0.86250    0.02500    1.000
    H32      H        0.06000    0.84500    0.05600    1.000
    C56      C        0.14250    0.88970    0.98810    1.000
    N9       N        0.61650    0.91430    0.95218    1.000
    N10      N        0.82510    0.91820    0.94840    1.000
    O9       O        0.82560    0.97080    0.87653    1.000
    O10      O        0.82550    0.86760    0.02085    1.000
    C57      C        0.53950    0.72890    0.60980    1.000
    H33      H        0.55990    0.76220    0.58650    1.000
    C58      C        0.54170    0.75260    0.65490    1.000
    H34      H        0.56910    0.79900    0.66380    1.000
    C59      C        0.64940    0.98500    0.94390    1.000
    H35      H        0.62520    0.03380    0.93880    1.000
    C60      C        0.71800    0.98920    0.94240    1.000
    H36      H        0.73960    0.03980    0.93730    1.000
    C61      C        0.75340    0.91620    0.94870    1.000
    C62      C        0.72060    0.84300    0.95600    1.000
    H37      H        0.74360    0.79300    0.96000    1.000
    C63      C        0.65120    0.84500    0.95720    1.000
    H38      H        0.62840    0.79500    0.96180    1.000
    C64      C        0.85820    0.94880    0.90920    1.000
    C65      C        0.93050    0.95020    0.90970    1.000
    C66      C        0.96460    0.97930    0.87290    1.000
    H39      H        0.93500    0.00200    0.85100    1.000
    C67      C        0.96520    0.92140    0.94860    1.000
    C68      C        0.93070    0.89120    0.98750    1.000
    C69      C        0.96500    0.86250    0.02500    1.000
    H40      H        0.94000    0.84500    0.05600    1.000
    C70      C        0.85750    0.88970    0.98810    1.000
    N11      N        0.38350    0.58570    0.45218    1.000
    N12      N        0.17490    0.58180    0.44840    1.000
    O11      O        0.17440    0.52920    0.37653    1.000
    O12      O        0.17450    0.63240    0.52085    1.000
    C71      C        0.46050    0.77110    0.10980    1.000
    H41      H        0.44010    0.73780    0.08650    1.000
    C72      C        0.45830    0.74740    0.15490    1.000
    H42      H        0.43090    0.70100    0.16380    1.000
    C73      C        0.35060    0.51500    0.44390    1.000
    H43      H        0.37480    0.46620    0.43880    1.000
    C74      C        0.28200    0.51080    0.44240    1.000
    H44      H        0.26040    0.46020    0.43730    1.000
    C75      C        0.24660    0.58380    0.44870    1.000
    C76      C        0.27940    0.65700    0.45600    1.000
    H45      H        0.25640    0.70700    0.46000    1.000
    C77      C        0.34880    0.65500    0.45720    1.000
    H46      H        0.37160    0.70500    0.46180    1.000
    C78      C        0.14180    0.55120    0.40920    1.000
    C79      C        0.06950    0.54980    0.40970    1.000
    C80      C        0.03540    0.52070    0.37290    1.000
    H47      H        0.06500    0.49800    0.35100    1.000
    C81      C        0.03480    0.57860    0.44860    1.000
    C82      C        0.06930    0.60880    0.48750    1.000
    C83      C        0.03500    0.63750    0.52500    1.000
    H48      H        0.06000    0.65500    0.55600    1.000
    C84      C        0.14250    0.61030    0.48810    1.000
    N13      N        0.38350    0.41430    0.54782    1.000
    N14      N        0.17490    0.41820    0.55160    1.000
    O13      O        0.17440    0.47080    0.62347    1.000
    O14      O        0.17450    0.36760    0.47915    1.000
    C85      C        0.46050    0.22890    0.89020    1.000
    H49      H        0.44010    0.26220    0.91350    1.000
    C86      C        0.45830    0.25260    0.84510    1.000
    H50      H        0.43090    0.29900    0.83620    1.000
    C87      C        0.35060    0.48500    0.55610    1.000
    H51      H        0.37480    0.53380    0.56120    1.000
    C88      C        0.28200    0.48920    0.55760    1.000
    H52      H        0.26040    0.53980    0.56270    1.000
    C89      C        0.24660    0.41620    0.55130    1.000
    C90      C        0.27940    0.34300    0.54400    1.000
    H53      H        0.25640    0.29300    0.54000    1.000
    C91      C        0.34880    0.34500    0.54280    1.000
    H54      H        0.37160    0.29500    0.53820    1.000
    C92      C        0.14180    0.44880    0.59080    1.000
    C93      C        0.06950    0.45020    0.59030    1.000
    C94      C        0.03540    0.47930    0.62710    1.000
    H55      H        0.06500    0.50200    0.64900    1.000
    C95      C        0.03480    0.42140    0.55140    1.000
    C96      C        0.06930    0.39120    0.51250    1.000
    C97      C        0.03500    0.36250    0.47500    1.000
    H56      H        0.06000    0.34500    0.44400    1.000
    C98      C        0.14250    0.38970    0.51190    1.000
    N15      N        0.61650    0.08570    0.04782    1.000
    N16      N        0.82510    0.08180    0.05160    1.000
    O15      O        0.82560    0.02920    0.12347    1.000
    O16      O        0.82550    0.13240    0.97915    1.000
    C99      C        0.53950    0.27110    0.39020    1.000
    H57      H        0.55990    0.23780    0.41350    1.000
    C100     C        0.54170    0.24740    0.34510    1.000
    H58      H        0.56910    0.20100    0.33620    1.000
    C101     C        0.64940    0.01500    0.05610    1.000
    H59      H        0.62520    0.96620    0.06120    1.000
    C102     C        0.71800    0.01080    0.05760    1.000
    H60      H        0.73960    0.96020    0.06270    1.000
    C103     C        0.75340    0.08380    0.05130    1.000
    C104     C        0.72060    0.15700    0.04400    1.000
    H61      H        0.74360    0.20700    0.04000    1.000
    C105     C        0.65120    0.15500    0.04280    1.000
    H62      H        0.62840    0.20500    0.03820    1.000
    C106     C        0.85820    0.05120    0.09080    1.000
    C107     C        0.93050    0.04980    0.09030    1.000
    C108     C        0.96460    0.02070    0.12710    1.000
    H63      H        0.93500    0.99800    0.14900    1.000
    C109     C        0.96520    0.07860    0.05140    1.000
    C110     C        0.93070    0.10880    0.01250    1.000
    C111     C        0.96500    0.13750    0.97500    1.000
    H64      H        0.94000    0.15500    0.94400    1.000
    C112     C        0.85750    0.11030    0.01190    1.000
    Cd1      Cd       0.50000    0.09257    0.04360    1.000
    C113     C        0.50000    0.17010    0.12610    1.000
    O17      O        0.50000    0.31730    0.48120    1.000
    O18      O        0.50000    0.44510    0.46207    1.000
    C114     C        0.50000    0.20410    0.17370    1.000
    O19      O        0.50000    0.21850    0.09295    1.000
    C115     C        0.50000    0.28800    0.18240    1.000
    H65      H        0.50000    0.32540    0.15810    1.000
    O20      O        0.50000    0.09210    0.12180    1.000
    C116     C        0.50000    0.31860    0.22620    1.000
    H66      H        0.50000    0.37620    0.23100    1.000
    C117     C        0.50000    0.17990    0.25440    1.000
    H67      H        0.50000    0.14250    0.27880    1.000
    C118     C        0.50000    0.14900    0.21040    1.000
    H68      H        0.50000    0.09150    0.20530    1.000
    C119     C        0.50000    0.26470    0.26330    1.000
    C120     C        0.50000    0.29550    0.31050    1.000
    C121     C        0.50000    0.37150    0.32270    1.000
    H69      H        0.50000    0.41210    0.30000    1.000
    C122     C        0.50000    0.39880    0.36840    1.000
    H70      H        0.50000    0.45600    0.37430    1.000
    C123     C        0.50000    0.34740    0.40230    1.000
    C124     C        0.50000    0.37130    0.45160    1.000
    Cd2      Cd       0.50000    0.40743    0.54360    1.000
    C125     C        0.50000    0.32990    0.62610    1.000
    O21      O        0.50000    0.18270    0.98120    1.000
    O22      O        0.50000    0.05490    0.96207    1.000
    C126     C        0.50000    0.29590    0.67370    1.000
    O23      O        0.50000    0.28150    0.59295    1.000
    C127     C        0.50000    0.21200    0.68240    1.000
    H71      H        0.50000    0.17460    0.65810    1.000
    O24      O        0.50000    0.40790    0.62180    1.000
    C128     C        0.50000    0.18140    0.72620    1.000
    H72      H        0.50000    0.12380    0.73100    1.000
    C129     C        0.50000    0.32010    0.75440    1.000
    H73      H        0.50000    0.35750    0.77880    1.000
    C130     C        0.50000    0.35100    0.71040    1.000
    H74      H        0.50000    0.40850    0.70530    1.000
    C131     C        0.50000    0.23530    0.76330    1.000
    C132     C        0.50000    0.20450    0.81050    1.000
    C133     C        0.50000    0.12850    0.82270    1.000
    H75      H        0.50000    0.08790    0.80000    1.000
    C134     C        0.50000    0.10120    0.86840    1.000
    H76      H        0.50000    0.04400    0.87430    1.000
    C135     C        0.50000    0.15260    0.90230    1.000
    C136     C        0.50000    0.12870    0.95160    1.000
    Cd3      Cd       0.50000    0.59257    0.45640    1.000
    C137     C        0.50000    0.67010    0.37390    1.000
    O25      O        0.50000    0.81730    0.01880    1.000
    O26      O        0.50000    0.94510    0.03793    1.000
    C138     C        0.50000    0.70410    0.32630    1.000
    O27      O        0.50000    0.71850    0.40705    1.000
    C139     C        0.50000    0.78800    0.31760    1.000
    H77      H        0.50000    0.82540    0.34190    1.000
    O28      O        0.50000    0.59210    0.37820    1.000
    C140     C        0.50000    0.81860    0.27380    1.000
    H78      H        0.50000    0.87620    0.26900    1.000
    C141     C        0.50000    0.67990    0.24560    1.000
    H79      H        0.50000    0.64250    0.22120    1.000
    C142     C        0.50000    0.64900    0.28960    1.000
    H80      H        0.50000    0.59150    0.29470    1.000
    C143     C        0.50000    0.76470    0.23670    1.000
    C144     C        0.50000    0.79550    0.18950    1.000
    C145     C        0.50000    0.87150    0.17730    1.000
    H81      H        0.50000    0.91210    0.20000    1.000
    C146     C        0.50000    0.89880    0.13160    1.000
    H82      H        0.50000    0.95600    0.12570    1.000
    C147     C        0.50000    0.84740    0.09770    1.000
    C148     C        0.50000    0.87130    0.04840    1.000
    Cd4      Cd       0.50000    0.90743    0.95640    1.000
    C149     C        0.50000    0.82990    0.87390    1.000
    O29      O        0.50000    0.68270    0.51880    1.000
    O30      O        0.50000    0.55490    0.53793    1.000
    C150     C        0.50000    0.79590    0.82630    1.000
    O31      O        0.50000    0.78150    0.90705    1.000
    C151     C        0.50000    0.71200    0.81760    1.000
    H83      H        0.50000    0.67460    0.84190    1.000
    O32      O        0.50000    0.90790    0.87820    1.000
    C152     C        0.50000    0.68140    0.77380    1.000
    H84      H        0.50000    0.62380    0.76900    1.000
    C153     C        0.50000    0.82010    0.74560    1.000
    H85      H        0.50000    0.85750    0.72120    1.000
    C154     C        0.50000    0.85100    0.78960    1.000
    H86      H        0.50000    0.90850    0.79470    1.000
    C155     C        0.50000    0.73530    0.73670    1.000
    C156     C        0.50000    0.70450    0.68950    1.000
    C157     C        0.50000    0.62850    0.67730    1.000
    H87      H        0.50000    0.58790    0.70000    1.000
    C158     C        0.50000    0.60120    0.63160    1.000
    H88      H        0.50000    0.54400    0.62570    1.000
    C159     C        0.50000    0.65260    0.59770    1.000
    C160     C        0.50000    0.62870    0.54840    1.000
    N17      N        0.88350    0.58570    0.04782    1.000
    N18      N        0.67490    0.58180    0.05160    1.000
    O33      O        0.67440    0.52920    0.12347    1.000
    O34      O        0.67450    0.63240    0.97915    1.000
    C161     C        0.96050    0.77110    0.39020    1.000
    H89      H        0.94010    0.73780    0.41350    1.000
    C162     C        0.95830    0.74740    0.34510    1.000
    H90      H        0.93090    0.70100    0.33620    1.000
    C163     C        0.85060    0.51500    0.05610    1.000
    H91      H        0.87480    0.46620    0.06120    1.000
    C164     C        0.78200    0.51080    0.05760    1.000
    H92      H        0.76040    0.46020    0.06270    1.000
    C165     C        0.74660    0.58380    0.05130    1.000
    C166     C        0.77940    0.65700    0.04400    1.000
    H93      H        0.75640    0.70700    0.04000    1.000
    C167     C        0.84880    0.65500    0.04280    1.000
    H94      H        0.87160    0.70500    0.03820    1.000
    C168     C        0.64180    0.55120    0.09080    1.000
    C169     C        0.56950    0.54980    0.09030    1.000
    C170     C        0.53540    0.52070    0.12710    1.000
    H95      H        0.56500    0.49800    0.14900    1.000
    C171     C        0.53480    0.57860    0.05140    1.000
    C172     C        0.56930    0.60880    0.01250    1.000
    C173     C        0.53500    0.63750    0.97500    1.000
    H96      H        0.56000    0.65500    0.94400    1.000
    C174     C        0.64250    0.61030    0.01190    1.000
    N19      N        0.11650    0.91430    0.54782    1.000
    N20      N        0.32510    0.91820    0.55160    1.000
    O35      O        0.32560    0.97080    0.62347    1.000
    O36      O        0.32550    0.86760    0.47915    1.000
    C175     C        0.03950    0.72890    0.89020    1.000
    H97      H        0.05990    0.76220    0.91350    1.000
    C176     C        0.04170    0.75260    0.84510    1.000
    H98      H        0.06910    0.79900    0.83620    1.000
    C177     C        0.14940    0.98500    0.55610    1.000
    H99      H        0.12520    0.03380    0.56120    1.000
    C178     C        0.21800    0.98920    0.55760    1.000
    H100     H        0.23960    0.03980    0.56270    1.000
    C179     C        0.25340    0.91620    0.55130    1.000
    C180     C        0.22060    0.84300    0.54400    1.000
    H101     H        0.24360    0.79300    0.54000    1.000
    C181     C        0.15120    0.84500    0.54280    1.000
    H102     H        0.12840    0.79500    0.53820    1.000
    C182     C        0.35820    0.94880    0.59080    1.000
    C183     C        0.43050    0.95020    0.59030    1.000
    C184     C        0.46460    0.97930    0.62710    1.000
    H103     H        0.43500    0.00200    0.64900    1.000
    C185     C        0.46520    0.92140    0.55140    1.000
    C186     C        0.43070    0.89120    0.51250    1.000
    C187     C        0.46500    0.86250    0.47500    1.000
    H104     H        0.44000    0.84500    0.44400    1.000
    C188     C        0.35750    0.88970    0.51190    1.000
    N21      N        0.11650    0.08570    0.45218    1.000
    N22      N        0.32510    0.08180    0.44840    1.000
    O37      O        0.32560    0.02920    0.37653    1.000
    O38      O        0.32550    0.13240    0.52085    1.000
    C189     C        0.03950    0.27110    0.10980    1.000
    H105     H        0.05990    0.23780    0.08650    1.000
    C190     C        0.04170    0.24740    0.15490    1.000
    H106     H        0.06910    0.20100    0.16380    1.000
    C191     C        0.14940    0.01500    0.44390    1.000
    H107     H        0.12520    0.96620    0.43880    1.000
    C192     C        0.21800    0.01080    0.44240    1.000
    H108     H        0.23960    0.96020    0.43730    1.000
    C193     C        0.25340    0.08380    0.44870    1.000
    C194     C        0.22060    0.15700    0.45600    1.000
    H109     H        0.24360    0.20700    0.46000    1.000
    C195     C        0.15120    0.15500    0.45720    1.000
    H110     H        0.12840    0.20500    0.46180    1.000
    C196     C        0.35820    0.05120    0.40920    1.000
    C197     C        0.43050    0.04980    0.40970    1.000
    C198     C        0.46460    0.02070    0.37290    1.000
    H111     H        0.43500    0.99800    0.35100    1.000
    C199     C        0.46520    0.07860    0.44860    1.000
    C200     C        0.43070    0.10880    0.48750    1.000
    C201     C        0.46500    0.13750    0.52500    1.000
    H112     H        0.44000    0.15500    0.55600    1.000
    C202     C        0.35750    0.11030    0.48810    1.000
    N23      N        0.88350    0.41430    0.95218    1.000
    N24      N        0.67490    0.41820    0.94840    1.000
    O39      O        0.67440    0.47080    0.87653    1.000
    O40      O        0.67450    0.36760    0.02085    1.000
    C203     C        0.96050    0.22890    0.60980    1.000
    H113     H        0.94010    0.26220    0.58650    1.000
    C204     C        0.95830    0.25260    0.65490    1.000
    H114     H        0.93090    0.29900    0.66380    1.000
    C205     C        0.85060    0.48500    0.94390    1.000
    H115     H        0.87480    0.53380    0.93880    1.000
    C206     C        0.78200    0.48920    0.94240    1.000
    H116     H        0.76040    0.53980    0.93730    1.000
    C207     C        0.74660    0.41620    0.94870    1.000
    C208     C        0.77940    0.34300    0.95600    1.000
    H117     H        0.75640    0.29300    0.96000    1.000
    C209     C        0.84880    0.34500    0.95720    1.000
    H118     H        0.87160    0.29500    0.96180    1.000
    C210     C        0.64180    0.44880    0.90920    1.000
    C211     C        0.56950    0.45020    0.90970    1.000
    C212     C        0.53540    0.47930    0.87290    1.000
    H119     H        0.56500    0.50200    0.85100    1.000
    C213     C        0.53480    0.42140    0.94860    1.000
    C214     C        0.56930    0.39120    0.98750    1.000
    C215     C        0.53500    0.36250    0.02500    1.000
    H120     H        0.56000    0.34500    0.05600    1.000
    C216     C        0.64250    0.38970    0.98810    1.000
    N25      N        0.11650    0.41430    0.95218    1.000
    N26      N        0.32510    0.41820    0.94840    1.000
    O41      O        0.32560    0.47080    0.87653    1.000
    O42      O        0.32550    0.36760    0.02085    1.000
    C217     C        0.03950    0.22890    0.60980    1.000
    H121     H        0.05990    0.26220    0.58650    1.000
    C218     C        0.04170    0.25260    0.65490    1.000
    H122     H        0.06910    0.29900    0.66380    1.000
    C219     C        0.14940    0.48500    0.94390    1.000
    H123     H        0.12520    0.53380    0.93880    1.000
    C220     C        0.21800    0.48920    0.94240    1.000
    H124     H        0.23960    0.53980    0.93730    1.000
    C221     C        0.25340    0.41620    0.94870    1.000
    C222     C        0.22060    0.34300    0.95600    1.000
    H125     H        0.24360    0.29300    0.96000    1.000
    C223     C        0.15120    0.34500    0.95720    1.000
    H126     H        0.12840    0.29500    0.96180    1.000
    C224     C        0.35820    0.44880    0.90920    1.000
    C225     C        0.43050    0.45020    0.90970    1.000
    C226     C        0.46460    0.47930    0.87290    1.000
    H127     H        0.43500    0.50200    0.85100    1.000
    C227     C        0.46520    0.42140    0.94860    1.000
    C228     C        0.43070    0.39120    0.98750    1.000
    C229     C        0.46500    0.36250    0.02500    1.000
    H128     H        0.44000    0.34500    0.05600    1.000
    C230     C        0.35750    0.38970    0.98810    1.000
    N27      N        0.88350    0.08570    0.45218    1.000
    N28      N        0.67490    0.08180    0.44840    1.000
    O43      O        0.67440    0.02920    0.37653    1.000
    O44      O        0.67450    0.13240    0.52085    1.000
    C231     C        0.96050    0.27110    0.10980    1.000
    H129     H        0.94010    0.23780    0.08650    1.000
    C232     C        0.95830    0.24740    0.15490    1.000
    H130     H        0.93090    0.20100    0.16380    1.000
    C233     C        0.85060    0.01500    0.44390    1.000
    H131     H        0.87480    0.96620    0.43880    1.000
    C234     C        0.78200    0.01080    0.44240    1.000
    H132     H        0.76040    0.96020    0.43730    1.000
    C235     C        0.74660    0.08380    0.44870    1.000
    C236     C        0.77940    0.15700    0.45600    1.000
    H133     H        0.75640    0.20700    0.46000    1.000
    C237     C        0.84880    0.15500    0.45720    1.000
    H134     H        0.87160    0.20500    0.46180    1.000
    C238     C        0.64180    0.05120    0.40920    1.000
    C239     C        0.56950    0.04980    0.40970    1.000
    C240     C        0.53540    0.02070    0.37290    1.000
    H135     H        0.56500    0.99800    0.35100    1.000
    C241     C        0.53480    0.07860    0.44860    1.000
    C242     C        0.56930    0.10880    0.48750    1.000
    C243     C        0.53500    0.13750    0.52500    1.000
    H136     H        0.56000    0.15500    0.55600    1.000
    C244     C        0.64250    0.11030    0.48810    1.000
    N29      N        0.88350    0.91430    0.54782    1.000
    N30      N        0.67490    0.91820    0.55160    1.000
    O45      O        0.67440    0.97080    0.62347    1.000
    O46      O        0.67450    0.86760    0.47915    1.000
    C245     C        0.96050    0.72890    0.89020    1.000
    H137     H        0.94010    0.76220    0.91350    1.000
    C246     C        0.95830    0.75260    0.84510    1.000
    H138     H        0.93090    0.79900    0.83620    1.000
    C247     C        0.85060    0.98500    0.55610    1.000
    H139     H        0.87480    0.03380    0.56120    1.000
    C248     C        0.78200    0.98920    0.55760    1.000
    H140     H        0.76040    0.03980    0.56270    1.000
    C249     C        0.74660    0.91620    0.55130    1.000
    C250     C        0.77940    0.84300    0.54400    1.000
    H141     H        0.75640    0.79300    0.54000    1.000
    C251     C        0.84880    0.84500    0.54280    1.000
    H142     H        0.87160    0.79500    0.53820    1.000
    C252     C        0.64180    0.94880    0.59080    1.000
    C253     C        0.56950    0.95020    0.59030    1.000
    C254     C        0.53540    0.97930    0.62710    1.000
    H143     H        0.56500    0.00200    0.64900    1.000
    C255     C        0.53480    0.92140    0.55140    1.000
    C256     C        0.56930    0.89120    0.51250    1.000
    C257     C        0.53500    0.86250    0.47500    1.000
    H144     H        0.56000    0.84500    0.44400    1.000
    C258     C        0.64250    0.88970    0.51190    1.000
    N31      N        0.11650    0.58570    0.04782    1.000
    N32      N        0.32510    0.58180    0.05160    1.000
    O47      O        0.32560    0.52920    0.12347    1.000
    O48      O        0.32550    0.63240    0.97915    1.000
    C259     C        0.03950    0.77110    0.39020    1.000
    H145     H        0.05990    0.73780    0.41350    1.000
    C260     C        0.04170    0.74740    0.34510    1.000
    H146     H        0.06910    0.70100    0.33620    1.000
    C261     C        0.14940    0.51500    0.05610    1.000
    H147     H        0.12520    0.46620    0.06120    1.000
    C262     C        0.21800    0.51080    0.05760    1.000
    H148     H        0.23960    0.46020    0.06270    1.000
    C263     C        0.25340    0.58380    0.05130    1.000
    C264     C        0.22060    0.65700    0.04400    1.000
    H149     H        0.24360    0.70700    0.04000    1.000
    C265     C        0.15120    0.65500    0.04280    1.000
    H150     H        0.12840    0.70500    0.03820    1.000
    C266     C        0.35820    0.55120    0.09080    1.000
    C267     C        0.43050    0.54980    0.09030    1.000
    C268     C        0.46460    0.52070    0.12710    1.000
    H151     H        0.43500    0.49800    0.14900    1.000
    C269     C        0.46520    0.57860    0.05140    1.000
    C270     C        0.43070    0.60880    0.01250    1.000
    C271     C        0.46500    0.63750    0.97500    1.000
    H152     H        0.44000    0.65500    0.94400    1.000
    C272     C        0.35750    0.61030    0.01190    1.000
    Cd5      Cd       0.00000    0.59257    0.04360    1.000
    C273     C        0.00000    0.67010    0.12610    1.000
    O49      O        0.00000    0.81730    0.48120    1.000
    O50      O        0.00000    0.94510    0.46207    1.000
    C274     C        0.00000    0.70410    0.17370    1.000
    O51      O        0.00000    0.71850    0.09295    1.000
    C275     C        0.00000    0.78800    0.18240    1.000
    H153     H        0.00000    0.82540    0.15810    1.000
    O52      O        0.00000    0.59210    0.12180    1.000
    C276     C        0.00000    0.81860    0.22620    1.000
    H154     H        0.00000    0.87620    0.23100    1.000
    C277     C        0.00000    0.67990    0.25440    1.000
    H155     H        0.00000    0.64250    0.27880    1.000
    C278     C        0.00000    0.64900    0.21040    1.000
    H156     H        0.00000    0.59150    0.20530    1.000
    C279     C        0.00000    0.76470    0.26330    1.000
    C280     C        0.00000    0.79550    0.31050    1.000
    C281     C        0.00000    0.87150    0.32270    1.000
    H157     H        0.00000    0.91210    0.30000    1.000
    C282     C        0.00000    0.89880    0.36840    1.000
    H158     H        0.00000    0.95600    0.37430    1.000
    C283     C        0.00000    0.84740    0.40230    1.000
    C284     C        0.00000    0.87130    0.45160    1.000
    Cd6      Cd       0.00000    0.90743    0.54360    1.000
    C285     C        0.00000    0.82990    0.62610    1.000
    O53      O        0.00000    0.68270    0.98120    1.000
    O54      O        0.00000    0.55490    0.96207    1.000
    C286     C        0.00000    0.79590    0.67370    1.000
    O55      O        0.00000    0.78150    0.59295    1.000
    C287     C        0.00000    0.71200    0.68240    1.000
    H159     H        0.00000    0.67460    0.65810    1.000
    O56      O        0.00000    0.90790    0.62180    1.000
    C288     C        0.00000    0.68140    0.72620    1.000
    H160     H        0.00000    0.62380    0.73100    1.000
    C289     C        0.00000    0.82010    0.75440    1.000
    H161     H        0.00000    0.85750    0.77880    1.000
    C290     C        0.00000    0.85100    0.71040    1.000
    H162     H        0.00000    0.90850    0.70530    1.000
    C291     C        0.00000    0.73530    0.76330    1.000
    C292     C        0.00000    0.70450    0.81050    1.000
    C293     C        0.00000    0.62850    0.82270    1.000
    H163     H        0.00000    0.58790    0.80000    1.000
    C294     C        0.00000    0.60120    0.86840    1.000
    H164     H        0.00000    0.54400    0.87430    1.000
    C295     C        0.00000    0.65260    0.90230    1.000
    C296     C        0.00000    0.62870    0.95160    1.000
    Cd7      Cd       0.00000    0.09257    0.45640    1.000
    C297     C        0.00000    0.17010    0.37390    1.000
    O57      O        0.00000    0.31730    0.01880    1.000
    O58      O        0.00000    0.44510    0.03793    1.000
    C298     C        0.00000    0.20410    0.32630    1.000
    O59      O        0.00000    0.21850    0.40705    1.000
    C299     C        0.00000    0.28800    0.31760    1.000
    H165     H        0.00000    0.32540    0.34190    1.000
    O60      O        0.00000    0.09210    0.37820    1.000
    C300     C        0.00000    0.31860    0.27380    1.000
    H166     H        0.00000    0.37620    0.26900    1.000
    C301     C        0.00000    0.17990    0.24560    1.000
    H167     H        0.00000    0.14250    0.22120    1.000
    C302     C        0.00000    0.14900    0.28960    1.000
    H168     H        0.00000    0.09150    0.29470    1.000
    C303     C        0.00000    0.26470    0.23670    1.000
    C304     C        0.00000    0.29550    0.18950    1.000
    C305     C        0.00000    0.37150    0.17730    1.000
    H169     H        0.00000    0.41210    0.20000    1.000
    C306     C        0.00000    0.39880    0.13160    1.000
    H170     H        0.00000    0.45600    0.12570    1.000
    C307     C        0.00000    0.34740    0.09770    1.000
    C308     C        0.00000    0.37130    0.04840    1.000
    Cd8      Cd       0.00000    0.40743    0.95640    1.000
    C309     C        0.00000    0.32990    0.87390    1.000
    O61      O        0.00000    0.18270    0.51880    1.000
    O62      O        0.00000    0.05490    0.53793    1.000
    C310     C        0.00000    0.29590    0.82630    1.000
    O63      O        0.00000    0.28150    0.90705    1.000
    C311     C        0.00000    0.21200    0.81760    1.000
    H171     H        0.00000    0.17460    0.84190    1.000
    O64      O        0.00000    0.40790    0.87820    1.000
    C312     C        0.00000    0.18140    0.77380    1.000
    H172     H        0.00000    0.12380    0.76900    1.000
    C313     C        0.00000    0.32010    0.74560    1.000
    H173     H        0.00000    0.35750    0.72120    1.000
    C314     C        0.00000    0.35100    0.78960    1.000
    H174     H        0.00000    0.40850    0.79470    1.000
    C315     C        0.00000    0.23530    0.73670    1.000
    C316     C        0.00000    0.20450    0.68950    1.000
    C317     C        0.00000    0.12850    0.67730    1.000
    H175     H        0.00000    0.08790    0.70000    1.000
    C318     C        0.00000    0.10120    0.63160    1.000
    H176     H        0.00000    0.04400    0.62570    1.000
    C319     C        0.00000    0.15260    0.59770    1.000
    C320     C        0.00000    0.12870    0.54840    1.000
