# CIF file generated by openbabel 3.1.0, see https://openbabel.org
data_I
_chemical_name_common 'image0'
_cell_length_a 17.088
_cell_length_b 14.769
_cell_length_c 14.165
_cell_angle_alpha 90
_cell_angle_beta 116.039
_cell_angle_gamma 90
_space_group_name_H-M_alt 'P 1'
_space_group_name_Hall 'P 1'
loop_
    _symmetry_equiv_pos_as_xyz
    x,y,z
loop_
    _atom_site_label
    _atom_site_type_symbol
    _atom_site_fract_x
    _atom_site_fract_y
    _atom_site_fract_z
    _atom_site_occupancy
    Ni1      Ni       0.79498    0.00151    0.99805    1.000
    Ni2      Ni       0.80473    0.01593    0.25453    1.000
    O1       O        0.48490    0.91690    0.35520    1.000
    O2       O        0.86830    0.98670    0.91520    1.000
    N1       N        0.39920    0.92620    0.29220    1.000
    N2       N        0.95230    0.97620    0.96920    1.000
    C1       C        0.35050    0.85100    0.26640    1.000
    H1       H        0.37530    0.79450    0.29020    1.000
    C2       C        0.26140    0.86000    0.20300    1.000
    H2       H        0.22620    0.80870    0.18530    1.000
    C3       C        0.22440    0.94320    0.16620    1.000
    C4       C        0.27570    0.01500    0.19080    1.000
    H3       H        0.25260    0.07140    0.16320    1.000
    C5       C        0.36610    0.00660    0.25930    1.000
    H4       H        0.40130    0.05770    0.28060    1.000
    C6       C        0.00460    0.04850    0.00700    1.000
    H5       H        0.98080    0.10620    0.99010    1.000
    C7       C        0.09150    0.03960    0.06940    1.000
    H6       H        0.12620    0.09110    0.09270    1.000
    C8       C        0.12860    0.95560    0.09820    1.000
    C9       C        0.07500    0.88120    0.05700    1.000
    H7       H        0.09900    0.82350    0.07280    1.000
    C10      C        0.98820    0.89000    0.99430    1.000
    H8       H        0.95330    0.83900    0.96840    1.000
    O3       O        0.38530    0.41100    0.59030    1.000
    O4       O        0.38840    0.38880    0.74810    1.000
    O5       O        0.72950    0.10850    0.90580    1.000
    O6       O        0.71760    0.08050    0.74520    1.000
    C11      C        0.64610    0.27980    0.81420    1.000
    C12      C        0.73030    0.31110    0.88690    1.000
    H9       H        0.77720    0.27150    0.90840    1.000
    C13      C        0.74400    0.39720    0.92560    1.000
    H10      H        0.79930    0.41530    0.97390    1.000
    C14      C        0.67330    0.45910    0.89190    1.000
    H11      H        0.68260    0.51830    0.91690    1.000
    C15      C        0.59240    0.43220    0.82330    1.000
    H12      H        0.54670    0.47360    0.80150    1.000
    C16      C        0.57610    0.34430    0.78510    1.000
    C17      C        0.49100    0.31520    0.70850    1.000
    C18      C        0.48240    0.23080    0.66170    1.000
    H13      H        0.42860    0.21360    0.60880    1.000
    C19      C        0.55000    0.17350    0.69100    1.000
    H14      H        0.54180    0.11830    0.65630    1.000
    C20      C        0.63020    0.19300    0.76970    1.000
    C21      C        0.41430    0.37880    0.67890    1.000
    C22      C        0.70000    0.12370    0.80950    1.000
    O7       O        0.88900    0.91840    0.25440    1.000
    O8       O        0.85970    0.89630    0.08640    1.000
    O9       O        0.22510    0.61690    0.26150    1.000
    O10      O        0.20350    0.58670    0.40350    1.000
    C23      C        0.96000    0.72500    0.15820    1.000
    C24      C        0.88160    0.70040    0.07050    1.000
    H15      H        0.83390    0.73910    0.04820    1.000
    C25      C        0.87480    0.62210    0.01870    1.000
    H16      H        0.82350    0.60740    0.96030    1.000
    C26      C        0.94800    0.56180    0.05510    1.000
    H17      H        0.94350    0.50730    0.02020    1.000
    C27      C        0.02190    0.58220    0.13770    1.000
    H18      H        0.06790    0.54120    0.16080    1.000
    C28      C        0.03220    0.66790    0.19250    1.000
    C29      C        0.10970    0.68860    0.28090    1.000
    C30      C        0.11610    0.76310    0.33690    1.000
    H19      H        0.16700    0.77460    0.39740    1.000
    C31      C        0.04420    0.82630    0.30420    1.000
    H20      H        0.04950    0.87920    0.34200    1.000
    C32      C        0.96810    0.80740    0.21680    1.000
    C33      C        0.18720    0.62630    0.31850    1.000
    C34      C        0.89870    0.88160    0.18160    1.000
    O11      O        0.72640    0.02270    0.08960    1.000
    H21      H        0.68670    0.98270    0.07290    1.000
    H22      H        0.70160    0.07410    0.07430    1.000
    Ni3      Ni       0.29498    0.50151    0.99805    1.000
    Ni4      Ni       0.30473    0.51593    0.25453    1.000
    O12      O        0.98490    0.41690    0.35520    1.000
    O13      O        0.36830    0.48670    0.91520    1.000
    N3       N        0.89920    0.42620    0.29220    1.000
    N4       N        0.45230    0.47620    0.96920    1.000
    C35      C        0.85050    0.35100    0.26640    1.000
    H23      H        0.87530    0.29450    0.29020    1.000
    C36      C        0.76140    0.36000    0.20300    1.000
    H24      H        0.72620    0.30870    0.18530    1.000
    C37      C        0.72440    0.44320    0.16620    1.000
    C38      C        0.77570    0.51500    0.19080    1.000
    H25      H        0.75260    0.57140    0.16320    1.000
    C39      C        0.86610    0.50660    0.25930    1.000
    H26      H        0.90130    0.55770    0.28060    1.000
    C40      C        0.50460    0.54850    0.00700    1.000
    H27      H        0.48080    0.60620    0.99010    1.000
    C41      C        0.59150    0.53960    0.06940    1.000
    H28      H        0.62620    0.59110    0.09270    1.000
    C42      C        0.62860    0.45560    0.09820    1.000
    C43      C        0.57500    0.38120    0.05700    1.000
    H29      H        0.59900    0.32350    0.07280    1.000
    C44      C        0.48820    0.39000    0.99430    1.000
    H30      H        0.45330    0.33900    0.96840    1.000
    O14      O        0.88530    0.91100    0.59030    1.000
    O15      O        0.88840    0.88880    0.74810    1.000
    O16      O        0.22950    0.60850    0.90580    1.000
    O17      O        0.21760    0.58050    0.74520    1.000
    C45      C        0.14610    0.77980    0.81420    1.000
    C46      C        0.23030    0.81110    0.88690    1.000
    H31      H        0.27720    0.77150    0.90840    1.000
    C47      C        0.24400    0.89720    0.92560    1.000
    H32      H        0.29930    0.91530    0.97390    1.000
    C48      C        0.17330    0.95910    0.89190    1.000
    H33      H        0.18260    0.01830    0.91690    1.000
    C49      C        0.09240    0.93220    0.82330    1.000
    H34      H        0.04670    0.97360    0.80150    1.000
    C50      C        0.07610    0.84430    0.78510    1.000
    C51      C        0.99100    0.81520    0.70850    1.000
    C52      C        0.98240    0.73080    0.66170    1.000
    H35      H        0.92860    0.71360    0.60880    1.000
    C53      C        0.05000    0.67350    0.69100    1.000
    H36      H        0.04180    0.61830    0.65630    1.000
    C54      C        0.13020    0.69300    0.76970    1.000
    C55      C        0.91430    0.87880    0.67890    1.000
    C56      C        0.20000    0.62370    0.80950    1.000
    O18      O        0.38900    0.41840    0.25440    1.000
    O19      O        0.35970    0.39630    0.08640    1.000
    O20      O        0.72510    0.11690    0.26150    1.000
    O21      O        0.70350    0.08670    0.40350    1.000
    C57      C        0.46000    0.22500    0.15820    1.000
    C58      C        0.38160    0.20040    0.07050    1.000
    H37      H        0.33390    0.23910    0.04820    1.000
    C59      C        0.37480    0.12210    0.01870    1.000
    H38      H        0.32350    0.10740    0.96030    1.000
    C60      C        0.44800    0.06180    0.05510    1.000
    H39      H        0.44350    0.00730    0.02020    1.000
    C61      C        0.52190    0.08220    0.13770    1.000
    H40      H        0.56790    0.04120    0.16080    1.000
    C62      C        0.53220    0.16790    0.19250    1.000
    C63      C        0.60970    0.18860    0.28090    1.000
    C64      C        0.61610    0.26310    0.33690    1.000
    H41      H        0.66700    0.27460    0.39740    1.000
    C65      C        0.54420    0.32630    0.30420    1.000
    H42      H        0.54950    0.37920    0.34200    1.000
    C66      C        0.46810    0.30740    0.21680    1.000
    C67      C        0.68720    0.12630    0.31850    1.000
    C68      C        0.39870    0.38160    0.18160    1.000
    O22      O        0.22640    0.52270    0.08960    1.000
    H43      H        0.18670    0.48270    0.07290    1.000
    H44      H        0.20160    0.57410    0.07430    1.000
    Ni5      Ni       0.79498    0.99849    0.49805    1.000
    Ni6      Ni       0.80473    0.98407    0.75453    1.000
    O23      O        0.48490    0.08310    0.85520    1.000
    O24      O        0.86830    0.01330    0.41520    1.000
    N5       N        0.39920    0.07380    0.79220    1.000
    N6       N        0.95230    0.02380    0.46920    1.000
    C69      C        0.35050    0.14900    0.76640    1.000
    H45      H        0.37530    0.20550    0.79020    1.000
    C70      C        0.26140    0.14000    0.70300    1.000
    H46      H        0.22620    0.19130    0.68530    1.000
    C71      C        0.22440    0.05680    0.66620    1.000
    C72      C        0.27570    0.98500    0.69080    1.000
    H47      H        0.25260    0.92860    0.66320    1.000
    C73      C        0.36610    0.99340    0.75930    1.000
    H48      H        0.40130    0.94230    0.78060    1.000
    C74      C        0.00460    0.95150    0.50700    1.000
    H49      H        0.98080    0.89380    0.49010    1.000
    C75      C        0.09150    0.96040    0.56940    1.000
    H50      H        0.12620    0.90890    0.59270    1.000
    C76      C        0.12860    0.04440    0.59820    1.000
    C77      C        0.07500    0.11880    0.55700    1.000
    H51      H        0.09900    0.17650    0.57280    1.000
    C78      C        0.98820    0.11000    0.49430    1.000
    H52      H        0.95330    0.16100    0.46840    1.000
    O25      O        0.38530    0.58900    0.09030    1.000
    O26      O        0.38840    0.61120    0.24810    1.000
    O27      O        0.72950    0.89150    0.40580    1.000
    O28      O        0.71760    0.91950    0.24520    1.000
    C79      C        0.64610    0.72020    0.31420    1.000
    C80      C        0.73030    0.68890    0.38690    1.000
    H53      H        0.77720    0.72850    0.40840    1.000
    C81      C        0.74400    0.60280    0.42560    1.000
    H54      H        0.79930    0.58470    0.47390    1.000
    C82      C        0.67330    0.54090    0.39190    1.000
    H55      H        0.68260    0.48170    0.41690    1.000
    C83      C        0.59240    0.56780    0.32330    1.000
    H56      H        0.54670    0.52640    0.30150    1.000
    C84      C        0.57610    0.65570    0.28510    1.000
    C85      C        0.49100    0.68480    0.20850    1.000
    C86      C        0.48240    0.76920    0.16170    1.000
    H57      H        0.42860    0.78640    0.10880    1.000
    C87      C        0.55000    0.82650    0.19100    1.000
    H58      H        0.54180    0.88170    0.15630    1.000
    C88      C        0.63020    0.80700    0.26970    1.000
    C89      C        0.41430    0.62120    0.17890    1.000
    C90      C        0.70000    0.87630    0.30950    1.000
    O29      O        0.88900    0.08160    0.75440    1.000
    O30      O        0.85970    0.10370    0.58640    1.000
    O31      O        0.22510    0.38310    0.76150    1.000
    O32      O        0.20350    0.41330    0.90350    1.000
    C91      C        0.96000    0.27500    0.65820    1.000
    C92      C        0.88160    0.29960    0.57050    1.000
    H59      H        0.83390    0.26090    0.54820    1.000
    C93      C        0.87480    0.37790    0.51870    1.000
    H60      H        0.82350    0.39260    0.46030    1.000
    C94      C        0.94800    0.43820    0.55510    1.000
    H61      H        0.94350    0.49270    0.52020    1.000
    C95      C        0.02190    0.41780    0.63770    1.000
    H62      H        0.06790    0.45880    0.66080    1.000
    C96      C        0.03220    0.33210    0.69250    1.000
    C97      C        0.10970    0.31140    0.78090    1.000
    C98      C        0.11610    0.23690    0.83690    1.000
    H63      H        0.16700    0.22540    0.89740    1.000
    C99      C        0.04420    0.17370    0.80420    1.000
    H64      H        0.04950    0.12080    0.84200    1.000
    C100     C        0.96810    0.19260    0.71680    1.000
    C101     C        0.18720    0.37370    0.81850    1.000
    C102     C        0.89870    0.11840    0.68160    1.000
    O33      O        0.72640    0.97730    0.58960    1.000
    H65      H        0.68670    0.01730    0.57290    1.000
    H66      H        0.70160    0.92590    0.57430    1.000
    Ni7      Ni       0.29498    0.49849    0.49805    1.000
    Ni8      Ni       0.30473    0.48407    0.75453    1.000
    O34      O        0.98490    0.58310    0.85520    1.000
    O35      O        0.36830    0.51330    0.41520    1.000
    N7       N        0.89920    0.57380    0.79220    1.000
    N8       N        0.45230    0.52380    0.46920    1.000
    C103     C        0.85050    0.64900    0.76640    1.000
    H67      H        0.87530    0.70550    0.79020    1.000
    C104     C        0.76140    0.64000    0.70300    1.000
    H68      H        0.72620    0.69130    0.68530    1.000
    C105     C        0.72440    0.55680    0.66620    1.000
    C106     C        0.77570    0.48500    0.69080    1.000
    H69      H        0.75260    0.42860    0.66320    1.000
    C107     C        0.86610    0.49340    0.75930    1.000
    H70      H        0.90130    0.44230    0.78060    1.000
    C108     C        0.50460    0.45150    0.50700    1.000
    H71      H        0.48080    0.39380    0.49010    1.000
    C109     C        0.59150    0.46040    0.56940    1.000
    H72      H        0.62620    0.40890    0.59270    1.000
    C110     C        0.62860    0.54440    0.59820    1.000
    C111     C        0.57500    0.61880    0.55700    1.000
    H73      H        0.59900    0.67650    0.57280    1.000
    C112     C        0.48820    0.61000    0.49430    1.000
    H74      H        0.45330    0.66100    0.46840    1.000
    O36      O        0.88530    0.08900    0.09030    1.000
    O37      O        0.88840    0.11120    0.24810    1.000
    O38      O        0.22950    0.39150    0.40580    1.000
    O39      O        0.21760    0.41950    0.24520    1.000
    C113     C        0.14610    0.22020    0.31420    1.000
    C114     C        0.23030    0.18890    0.38690    1.000
    H75      H        0.27720    0.22850    0.40840    1.000
    C115     C        0.24400    0.10280    0.42560    1.000
    H76      H        0.29930    0.08470    0.47390    1.000
    C116     C        0.17330    0.04090    0.39190    1.000
    H77      H        0.18260    0.98170    0.41690    1.000
    C117     C        0.09240    0.06780    0.32330    1.000
    H78      H        0.04670    0.02640    0.30150    1.000
    C118     C        0.07610    0.15570    0.28510    1.000
    C119     C        0.99100    0.18480    0.20850    1.000
    C120     C        0.98240    0.26920    0.16170    1.000
    H79      H        0.92860    0.28640    0.10880    1.000
    C121     C        0.05000    0.32650    0.19100    1.000
    H80      H        0.04180    0.38170    0.15630    1.000
    C122     C        0.13020    0.30700    0.26970    1.000
    C123     C        0.91430    0.12120    0.17890    1.000
    C124     C        0.20000    0.37630    0.30950    1.000
    O40      O        0.38900    0.58160    0.75440    1.000
    O41      O        0.35970    0.60370    0.58640    1.000
    O42      O        0.72510    0.88310    0.76150    1.000
    O43      O        0.70350    0.91330    0.90350    1.000
    C125     C        0.46000    0.77500    0.65820    1.000
    C126     C        0.38160    0.79960    0.57050    1.000
    H81      H        0.33390    0.76090    0.54820    1.000
    C127     C        0.37480    0.87790    0.51870    1.000
    H82      H        0.32350    0.89260    0.46030    1.000
    C128     C        0.44800    0.93820    0.55510    1.000
    H83      H        0.44350    0.99270    0.52020    1.000
    C129     C        0.52190    0.91780    0.63770    1.000
    H84      H        0.56790    0.95880    0.66080    1.000
    C130     C        0.53220    0.83210    0.69250    1.000
    C131     C        0.60970    0.81140    0.78090    1.000
    C132     C        0.61610    0.73690    0.83690    1.000
    H85      H        0.66700    0.72540    0.89740    1.000
    C133     C        0.54420    0.67370    0.80420    1.000
    H86      H        0.54950    0.62080    0.84200    1.000
    C134     C        0.46810    0.69260    0.71680    1.000
    C135     C        0.68720    0.87370    0.81850    1.000
    C136     C        0.39870    0.61840    0.68160    1.000
    O44      O        0.22640    0.47730    0.58960    1.000
    H87      H        0.18670    0.51730    0.57290    1.000
    H88      H        0.20160    0.42590    0.57430    1.000
