# CIF file generated by openbabel 3.1.0, see https://openbabel.org
data_I
_chemical_name_common 'OPENON_clean'
_cell_length_a 7.686
_cell_length_b 9.243
_cell_length_c 12.56
_cell_angle_alpha 95.27
_cell_angle_beta 98.43
_cell_angle_gamma 101.91
_space_group_name_H-M_alt 'P 1'
_space_group_name_Hall 'P 1'
loop_
    _symmetry_equiv_pos_as_xyz
    x,y,z
loop_
    _atom_site_label
    _atom_site_type_symbol
    _atom_site_fract_x
    _atom_site_fract_y
    _atom_site_fract_z
    _atom_site_occupancy
    Cu1      Cu       0.35405    0.10135    0.05398    1.000
    Cu2      Cu       0.64595    0.89865    0.94602    1.000
    H1       H        0.28590    0.56980    0.10260    1.000
    H2       H        0.61830    0.25720    0.23000    1.000
    H3       H        0.77400    0.23540    0.39450    1.000
    H4       H        0.49720    0.81060    0.36380    1.000
    H5       H        0.35010    0.84470    0.19960    1.000
    H6       H        0.10690    0.34980    0.67630    1.000
    H7       H        0.32090    0.48770    0.81730    1.000
    H8       H        0.41100    0.37700    0.96450    1.000
    H9       H        0.08450    0.99580    0.84010    1.000
    H10      H        0.85380    0.86790    0.69470    1.000
    H11      H        0.71410    0.43020    0.89740    1.000
    H12      H        0.38170    0.74280    0.77000    1.000
    H13      H        0.22600    0.76460    0.60550    1.000
    H14      H        0.50280    0.18940    0.63620    1.000
    H15      H        0.64990    0.15530    0.80040    1.000
    H16      H        0.89310    0.65020    0.32370    1.000
    H17      H        0.67910    0.51230    0.18270    1.000
    H18      H        0.58900    0.62300    0.03550    1.000
    H19      H        0.91550    0.00420    0.15990    1.000
    H20      H        0.14620    0.13210    0.30530    1.000
    C1       C        0.13090    0.30590    0.14840    1.000
    C2       C        0.06070    0.40380    0.07000    1.000
    C3       C        0.17080    0.54180    0.06130    1.000
    C4       C        0.11210    0.63780    0.99240    1.000
    C5       C        0.23960    0.78560    0.98960    1.000
    C6       C        0.59480    0.16600    0.25690    1.000
    C7       C        0.68900    0.15390    0.35610    1.000
    C8       C        0.65670    0.01900    0.39890    1.000
    C9       C        0.52520    0.90220    0.33790    1.000
    C10      C        0.43730    0.92380    0.23920    1.000
    C11      C        0.75860    0.00610    0.50440    1.000
    C12      C        0.93980    0.06870    0.65210    1.000
    C13      C        0.07300    0.15710    0.74350    1.000
    C14      C        0.14470    0.30600    0.73680    1.000
    C15      C        0.27160    0.38770    0.82030    1.000
    C16      C        0.32510    0.32040    0.90800    1.000
    C17      C        0.13280    0.09530    0.83500    1.000
    C18      C        0.86910    0.69410    0.85160    1.000
    C19      C        0.93930    0.59620    0.93000    1.000
    C20      C        0.82920    0.45820    0.93870    1.000
    C21      C        0.88790    0.36220    0.00760    1.000
    C22      C        0.76040    0.21440    0.01040    1.000
    C23      C        0.40520    0.83400    0.74310    1.000
    C24      C        0.31100    0.84610    0.64390    1.000
    C25      C        0.34330    0.98100    0.60110    1.000
    C26      C        0.47480    0.09780    0.66210    1.000
    C27      C        0.56270    0.07620    0.76080    1.000
    C28      C        0.24140    0.99390    0.49560    1.000
    C29      C        0.06020    0.93130    0.34790    1.000
    C30      C        0.92700    0.84290    0.25650    1.000
    C31      C        0.85530    0.69400    0.26320    1.000
    C32      C        0.72840    0.61230    0.17970    1.000
    C33      C        0.67490    0.67960    0.09200    1.000
    C34      C        0.86720    0.90470    0.16500    1.000
    N1       N        0.47090    0.05360    0.19680    1.000
    N2       N        0.87580    0.12550    0.56530    1.000
    N3       N        0.74660    0.87880    0.54850    1.000
    N4       N        0.86410    0.92190    0.64380    1.000
    N5       N        0.25890    0.17590    0.91630    1.000
    N6       N        0.52910    0.94640    0.80320    1.000
    N7       N        0.12420    0.87450    0.43470    1.000
    N8       N        0.25340    0.12120    0.45150    1.000
    N9       N        0.13590    0.07810    0.35620    1.000
    N10      N        0.74110    0.82410    0.08370    1.000
    O1       O        0.28670    0.28340    0.14410    1.000
    O2       O        0.03110    0.25740    0.21260    1.000
    O3       O        0.39070    0.77910    0.96720    1.000
    O4       O        0.18680    0.90360    0.01630    1.000
    O5       O        0.71330    0.71660    0.85590    1.000
    O6       O        0.96890    0.74260    0.78740    1.000
    O7       O        0.60930    0.22090    0.03280    1.000
    O8       O        0.81320    0.09640    0.98370    1.000
