# CIF file generated by openbabel 3.1.0, see https://openbabel.org
data_I
_chemical_name_common 'image0'
_cell_length_a 13.2063
_cell_length_b 11.2784
_cell_length_c 15.3334
_cell_angle_alpha 90
_cell_angle_beta 103.854
_cell_angle_gamma 90
_space_group_name_H-M_alt 'P 1'
_space_group_name_Hall 'P 1'
loop_
    _symmetry_equiv_pos_as_xyz
    x,y,z
loop_
    _atom_site_label
    _atom_site_type_symbol
    _atom_site_fract_x
    _atom_site_fract_y
    _atom_site_fract_z
    _atom_site_occupancy
    Cd1      Cd       0.19519    0.82076    0.17910    1.000
    O1       O        0.30990    0.70020    0.29190    1.000
    O2       O        0.13760    0.62420    0.17099    1.000
    O3       O        0.32140    0.52510    0.36037    1.000
    O4       O        0.16130    0.44460    0.23416    1.000
    O5       O        0.00960    0.84400    0.13894    1.000
    O6       O        0.86860    0.85670    0.19356    1.000
    O7       O        0.12960    0.79590    0.01402    1.000
    O8       O        0.17100    0.71330    0.89571    1.000
    C1       C        0.28130    0.59600    0.29910    1.000
    C2       C        0.18460    0.55100    0.22810    1.000
    C3       C        0.96500    0.84910    0.20140    1.000
    C4       C        0.19160    0.75240    0.97390    1.000
    Cd2      Cd       0.69519    0.32076    0.17910    1.000
    O9       O        0.80990    0.20020    0.29190    1.000
    O10      O        0.63760    0.12420    0.17099    1.000
    O11      O        0.82140    0.02510    0.36037    1.000
    O12      O        0.66130    0.94460    0.23416    1.000
    O13      O        0.50960    0.34400    0.13894    1.000
    O14      O        0.36860    0.35670    0.19356    1.000
    O15      O        0.62960    0.29590    0.01402    1.000
    O16      O        0.67100    0.21330    0.89571    1.000
    C5       C        0.78130    0.09600    0.29910    1.000
    C6       C        0.68460    0.05100    0.22810    1.000
    C7       C        0.46500    0.34910    0.20140    1.000
    C8       C        0.69160    0.25240    0.97390    1.000
    Cd3      Cd       0.80481    0.82076    0.32090    1.000
    O17      O        0.69010    0.70020    0.20810    1.000
    O18      O        0.86240    0.62420    0.32901    1.000
    O19      O        0.67860    0.52510    0.13963    1.000
    O20      O        0.83870    0.44460    0.26584    1.000
    O21      O        0.99040    0.84400    0.36106    1.000
    O22      O        0.13140    0.85670    0.30644    1.000
    O23      O        0.87040    0.79590    0.48598    1.000
    O24      O        0.82900    0.71330    0.60429    1.000
    C9       C        0.71870    0.59600    0.20090    1.000
    C10      C        0.81540    0.55100    0.27190    1.000
    C11      C        0.03500    0.84910    0.29860    1.000
    C12      C        0.80840    0.75240    0.52610    1.000
    Cd4      Cd       0.30481    0.32076    0.32090    1.000
    O25      O        0.19010    0.20020    0.20810    1.000
    O26      O        0.36240    0.12420    0.32901    1.000
    O27      O        0.17860    0.02510    0.13963    1.000
    O28      O        0.33870    0.94460    0.26584    1.000
    O29      O        0.49040    0.34400    0.36106    1.000
    O30      O        0.63140    0.35670    0.30644    1.000
    O31      O        0.37040    0.29590    0.48598    1.000
    O32      O        0.32900    0.21330    0.60429    1.000
    C13      C        0.21870    0.09600    0.20090    1.000
    C14      C        0.31540    0.05100    0.27190    1.000
    C15      C        0.53500    0.34910    0.29860    1.000
    C16      C        0.30840    0.25240    0.52610    1.000
    Cd5      Cd       0.80481    0.17924    0.82090    1.000
    O33      O        0.69010    0.29980    0.70810    1.000
    O34      O        0.86240    0.37580    0.82901    1.000
    O35      O        0.67860    0.47490    0.63963    1.000
    O36      O        0.83870    0.55540    0.76584    1.000
    O37      O        0.99040    0.15600    0.86106    1.000
    O38      O        0.13140    0.14330    0.80644    1.000
    O39      O        0.87040    0.20410    0.98598    1.000
    O40      O        0.82900    0.28670    0.10429    1.000
    C17      C        0.71870    0.40400    0.70090    1.000
    C18      C        0.81540    0.44900    0.77190    1.000
    C19      C        0.03500    0.15090    0.79860    1.000
    C20      C        0.80840    0.24760    0.02610    1.000
    Cd6      Cd       0.30481    0.67924    0.82090    1.000
    O41      O        0.19010    0.79980    0.70810    1.000
    O42      O        0.36240    0.87580    0.82901    1.000
    O43      O        0.17860    0.97490    0.63963    1.000
    O44      O        0.33870    0.05540    0.76584    1.000
    O45      O        0.49040    0.65600    0.86106    1.000
    O46      O        0.63140    0.64330    0.80644    1.000
    O47      O        0.37040    0.70410    0.98598    1.000
    O48      O        0.32900    0.78670    0.10429    1.000
    C21      C        0.21870    0.90400    0.70090    1.000
    C22      C        0.31540    0.94900    0.77190    1.000
    C23      C        0.53500    0.65090    0.79860    1.000
    C24      C        0.30840    0.74760    0.02610    1.000
    Cd7      Cd       0.19519    0.17924    0.67910    1.000
    O49      O        0.30990    0.29980    0.79190    1.000
    O50      O        0.13760    0.37580    0.67099    1.000
    O51      O        0.32140    0.47490    0.86037    1.000
    O52      O        0.16130    0.55540    0.73416    1.000
    O53      O        0.00960    0.15600    0.63894    1.000
    O54      O        0.86860    0.14330    0.69356    1.000
    O55      O        0.12960    0.20410    0.51402    1.000
    O56      O        0.17100    0.28670    0.39571    1.000
    C25      C        0.28130    0.40400    0.79910    1.000
    C26      C        0.18460    0.44900    0.72810    1.000
    C27      C        0.96500    0.15090    0.70140    1.000
    C28      C        0.19160    0.24760    0.47390    1.000
    Cd8      Cd       0.69519    0.67924    0.67910    1.000
    O57      O        0.80990    0.79980    0.79190    1.000
    O58      O        0.63760    0.87580    0.67099    1.000
    O59      O        0.82140    0.97490    0.86037    1.000
    O60      O        0.66130    0.05540    0.73416    1.000
    O61      O        0.50960    0.65600    0.63894    1.000
    O62      O        0.36860    0.64330    0.69356    1.000
    O63      O        0.62960    0.70410    0.51402    1.000
    O64      O        0.67100    0.78670    0.39571    1.000
    C29      C        0.78130    0.90400    0.79910    1.000
    C30      C        0.68460    0.94900    0.72810    1.000
    C31      C        0.46500    0.65090    0.70140    1.000
    C32      C        0.69160    0.74760    0.47390    1.000
