# CIF file generated by openbabel 3.1.0, see https://openbabel.org
data_I
_chemical_name_common 'image0'
_cell_length_a 21.751
_cell_length_b 21.751
_cell_length_c 16.1438
_cell_angle_alpha 90
_cell_angle_beta 90
_cell_angle_gamma 90
_space_group_name_H-M_alt 'P 1'
_space_group_name_Hall 'P 1'
loop_
    _symmetry_equiv_pos_as_xyz
    x,y,z
loop_
    _atom_site_label
    _atom_site_type_symbol
    _atom_site_fract_x
    _atom_site_fract_y
    _atom_site_fract_z
    _atom_site_occupancy
    Tm1      Tm       0.11795    0.08566    0.12396    1.000
    O1       O        0.22380    0.07340    0.15360    1.000
    O2       O        0.25550    0.11120    0.27440    1.000
    O3       O        0.44030    0.11590    0.36770    1.000
    O4       O        0.52480    0.08220    0.30270    1.000
    N1       N        0.36880    0.07990    0.24770    1.000
    C1       C        0.26420    0.08460    0.20510    1.000
    C2       C        0.32930    0.06340    0.18860    1.000
    C3       C        0.34700    0.03080    0.12120    1.000
    H1       H        0.31910    0.02010    0.08000    1.000
    C4       C        0.40810    0.01400    0.11590    1.000
    H2       H        0.42140    0.99050    0.07110    1.000
    C5       C        0.44860    0.03080    0.17390    1.000
    H3       H        0.48990    0.01970    0.16990    1.000
    C6       C        0.42760    0.06460    0.23910    1.000
    C7       C        0.46870    0.08940    0.30740    1.000
    Tm2      Tm       0.61795    0.58566    0.62396    1.000
    O5       O        0.72380    0.57340    0.65360    1.000
    O6       O        0.75550    0.61120    0.77440    1.000
    O7       O        0.94030    0.61590    0.86770    1.000
    O8       O        0.02480    0.58220    0.80270    1.000
    N2       N        0.86880    0.57990    0.74770    1.000
    C8       C        0.76420    0.58460    0.70510    1.000
    C9       C        0.82930    0.56340    0.68860    1.000
    C10      C        0.84700    0.53080    0.62120    1.000
    H4       H        0.81910    0.52010    0.58000    1.000
    C11      C        0.90810    0.51400    0.61590    1.000
    H5       H        0.92140    0.49050    0.57110    1.000
    C12      C        0.94860    0.53080    0.67390    1.000
    H6       H        0.98990    0.51970    0.66990    1.000
    C13      C        0.92760    0.56460    0.73910    1.000
    C14      C        0.96870    0.58940    0.80740    1.000
    Tm3      Tm       0.38205    0.91434    0.62396    1.000
    O9       O        0.27620    0.92660    0.65360    1.000
    O10      O        0.24450    0.88880    0.77440    1.000
    O11      O        0.05970    0.88410    0.86770    1.000
    O12      O        0.97520    0.91780    0.80270    1.000
    N3       N        0.13120    0.92010    0.74770    1.000
    C15      C        0.23580    0.91540    0.70510    1.000
    C16      C        0.17070    0.93660    0.68860    1.000
    C17      C        0.15300    0.96920    0.62120    1.000
    H7       H        0.18090    0.97990    0.58000    1.000
    C18      C        0.09190    0.98600    0.61590    1.000
    H8       H        0.07860    0.00950    0.57110    1.000
    C19      C        0.05140    0.96920    0.67390    1.000
    H9       H        0.01010    0.98030    0.66990    1.000
    C20      C        0.07240    0.93540    0.73910    1.000
    C21      C        0.03130    0.91060    0.80740    1.000
    Tm4      Tm       0.88205    0.41434    0.12396    1.000
    O13      O        0.77620    0.42660    0.15360    1.000
    O14      O        0.74450    0.38880    0.27440    1.000
    O15      O        0.55970    0.38410    0.36770    1.000
    O16      O        0.47520    0.41780    0.30270    1.000
    N4       N        0.63120    0.42010    0.24770    1.000
    C22      C        0.73580    0.41540    0.20510    1.000
    C23      C        0.67070    0.43660    0.18860    1.000
    C24      C        0.65300    0.46920    0.12120    1.000
    H10      H        0.68090    0.47990    0.08000    1.000
    C25      C        0.59190    0.48600    0.11590    1.000
    H11      H        0.57860    0.50950    0.07110    1.000
    C26      C        0.55140    0.46920    0.17390    1.000
    H12      H        0.51010    0.48030    0.16990    1.000
    C27      C        0.57240    0.43540    0.23910    1.000
    C28      C        0.53130    0.41060    0.30740    1.000
    Tm5      Tm       0.66434    0.36795    0.37396    1.000
    O17      O        0.67660    0.47380    0.40360    1.000
    O18      O        0.63880    0.50550    0.52440    1.000
    O19      O        0.63410    0.69030    0.61770    1.000
    O20      O        0.66780    0.77480    0.55270    1.000
    N5       N        0.67010    0.61880    0.49770    1.000
    C29      C        0.66540    0.51420    0.45510    1.000
    C30      C        0.68660    0.57930    0.43860    1.000
    C31      C        0.71920    0.59700    0.37120    1.000
    H13      H        0.72990    0.56910    0.33000    1.000
    C32      C        0.73600    0.65810    0.36590    1.000
    H14      H        0.75950    0.67140    0.32110    1.000
    C33      C        0.71920    0.69860    0.42390    1.000
    H15      H        0.73030    0.73990    0.41990    1.000
    C34      C        0.68540    0.67760    0.48910    1.000
    C35      C        0.66060    0.71870    0.55740    1.000
    Tm6      Tm       0.16434    0.86795    0.87396    1.000
    O21      O        0.17660    0.97380    0.90360    1.000
    O22      O        0.13880    0.00550    0.02440    1.000
    O23      O        0.13410    0.19030    0.11770    1.000
    O24      O        0.16780    0.27480    0.05270    1.000
    N6       N        0.17010    0.11880    0.99770    1.000
    C36      C        0.16540    0.01420    0.95510    1.000
    C37      C        0.18660    0.07930    0.93860    1.000
    C38      C        0.21920    0.09700    0.87120    1.000
    H16      H        0.22990    0.06910    0.83000    1.000
    C39      C        0.23600    0.15810    0.86590    1.000
    H17      H        0.25950    0.17140    0.82110    1.000
    C40      C        0.21920    0.19860    0.92390    1.000
    H18      H        0.23030    0.23990    0.91990    1.000
    C41      C        0.18540    0.17760    0.98910    1.000
    C42      C        0.16060    0.21870    0.05740    1.000
    Tm7      Tm       0.83566    0.63205    0.87396    1.000
    O25      O        0.82340    0.52620    0.90360    1.000
    O26      O        0.86120    0.49450    0.02440    1.000
    O27      O        0.86590    0.30970    0.11770    1.000
    O28      O        0.83220    0.22520    0.05270    1.000
    N7       N        0.82990    0.38120    0.99770    1.000
    C43      C        0.83460    0.48580    0.95510    1.000
    C44      C        0.81340    0.42070    0.93860    1.000
    C45      C        0.78080    0.40300    0.87120    1.000
    H19      H        0.77010    0.43090    0.83000    1.000
    C46      C        0.76400    0.34190    0.86590    1.000
    H20      H        0.74050    0.32860    0.82110    1.000
    C47      C        0.78080    0.30140    0.92390    1.000
    H21      H        0.76970    0.26010    0.91990    1.000
    C48      C        0.81460    0.32240    0.98910    1.000
    C49      C        0.83940    0.28130    0.05740    1.000
    Tm8      Tm       0.33566    0.13205    0.37396    1.000
    O29      O        0.32340    0.02620    0.40360    1.000
    O30      O        0.36120    0.99450    0.52440    1.000
    O31      O        0.36590    0.80970    0.61770    1.000
    O32      O        0.33220    0.72520    0.55270    1.000
    N8       N        0.32990    0.88120    0.49770    1.000
    C50      C        0.33460    0.98580    0.45510    1.000
    C51      C        0.31340    0.92070    0.43860    1.000
    C52      C        0.28080    0.90300    0.37120    1.000
    H22      H        0.27010    0.93090    0.33000    1.000
    C53      C        0.26400    0.84190    0.36590    1.000
    H23      H        0.24050    0.82860    0.32110    1.000
    C54      C        0.28080    0.80140    0.42390    1.000
    H24      H        0.26970    0.76010    0.41990    1.000
    C55      C        0.31460    0.82240    0.48910    1.000
    C56      C        0.33940    0.78130    0.55740    1.000
    Tm9      Tm       0.88205    0.91434    0.87604    1.000
    O33      O        0.77620    0.92660    0.84640    1.000
    O34      O        0.74450    0.88880    0.72560    1.000
    O35      O        0.55970    0.88410    0.63230    1.000
    O36      O        0.47520    0.91780    0.69730    1.000
    N9       N        0.63120    0.92010    0.75230    1.000
    C57      C        0.73580    0.91540    0.79490    1.000
    C58      C        0.67070    0.93660    0.81140    1.000
    C59      C        0.65300    0.96920    0.87880    1.000
    H25      H        0.68090    0.97990    0.92000    1.000
    C60      C        0.59190    0.98600    0.88410    1.000
    H26      H        0.57860    0.00950    0.92890    1.000
    C61      C        0.55140    0.96920    0.82610    1.000
    H27      H        0.51010    0.98030    0.83010    1.000
    C62      C        0.57240    0.93540    0.76090    1.000
    C63      C        0.53130    0.91060    0.69260    1.000
    Tm10     Tm       0.38205    0.41434    0.37604    1.000
    O37      O        0.27620    0.42660    0.34640    1.000
    O38      O        0.24450    0.38880    0.22560    1.000
    O39      O        0.05970    0.38410    0.13230    1.000
    O40      O        0.97520    0.41780    0.19730    1.000
    N10      N        0.13120    0.42010    0.25230    1.000
    C64      C        0.23580    0.41540    0.29490    1.000
    C65      C        0.17070    0.43660    0.31140    1.000
    C66      C        0.15300    0.46920    0.37880    1.000
    H28      H        0.18090    0.47990    0.42000    1.000
    C67      C        0.09190    0.48600    0.38410    1.000
    H29      H        0.07860    0.50950    0.42890    1.000
    C68      C        0.05140    0.46920    0.32610    1.000
    H30      H        0.01010    0.48030    0.33010    1.000
    C69      C        0.07240    0.43540    0.26090    1.000
    C70      C        0.03130    0.41060    0.19260    1.000
    Tm11     Tm       0.61795    0.08566    0.37604    1.000
    O41      O        0.72380    0.07340    0.34640    1.000
    O42      O        0.75550    0.11120    0.22560    1.000
    O43      O        0.94030    0.11590    0.13230    1.000
    O44      O        0.02480    0.08220    0.19730    1.000
    N11      N        0.86880    0.07990    0.25230    1.000
    C71      C        0.76420    0.08460    0.29490    1.000
    C72      C        0.82930    0.06340    0.31140    1.000
    C73      C        0.84700    0.03080    0.37880    1.000
    H31      H        0.81910    0.02010    0.42000    1.000
    C74      C        0.90810    0.01400    0.38410    1.000
    H32      H        0.92140    0.99050    0.42890    1.000
    C75      C        0.94860    0.03080    0.32610    1.000
    H33      H        0.98990    0.01970    0.33010    1.000
    C76      C        0.92760    0.06460    0.26090    1.000
    C77      C        0.96870    0.08940    0.19260    1.000
    Tm12     Tm       0.11795    0.58566    0.87604    1.000
    O45      O        0.22380    0.57340    0.84640    1.000
    O46      O        0.25550    0.61120    0.72560    1.000
    O47      O        0.44030    0.61590    0.63230    1.000
    O48      O        0.52480    0.58220    0.69730    1.000
    N12      N        0.36880    0.57990    0.75230    1.000
    C78      C        0.26420    0.58460    0.79490    1.000
    C79      C        0.32930    0.56340    0.81140    1.000
    C80      C        0.34700    0.53080    0.87880    1.000
    H34      H        0.31910    0.52010    0.92000    1.000
    C81      C        0.40810    0.51400    0.88410    1.000
    H35      H        0.42140    0.49050    0.92890    1.000
    C82      C        0.44860    0.53080    0.82610    1.000
    H36      H        0.48990    0.51970    0.83010    1.000
    C83      C        0.42760    0.56460    0.76090    1.000
    C84      C        0.46870    0.58940    0.69260    1.000
    Tm13     Tm       0.33566    0.63205    0.62604    1.000
    O49      O        0.32340    0.52620    0.59640    1.000
    O50      O        0.36120    0.49450    0.47560    1.000
    O51      O        0.36590    0.30970    0.38230    1.000
    O52      O        0.33220    0.22520    0.44730    1.000
    N13      N        0.32990    0.38120    0.50230    1.000
    C85      C        0.33460    0.48580    0.54490    1.000
    C86      C        0.31340    0.42070    0.56140    1.000
    C87      C        0.28080    0.40300    0.62880    1.000
    H37      H        0.27010    0.43090    0.67000    1.000
    C88      C        0.26400    0.34190    0.63410    1.000
    H38      H        0.24050    0.32860    0.67890    1.000
    C89      C        0.28080    0.30140    0.57610    1.000
    H39      H        0.26970    0.26010    0.58010    1.000
    C90      C        0.31460    0.32240    0.51090    1.000
    C91      C        0.33940    0.28130    0.44260    1.000
    Tm14     Tm       0.83566    0.13205    0.12604    1.000
    O53      O        0.82340    0.02620    0.09640    1.000
    O54      O        0.86120    0.99450    0.97560    1.000
    O55      O        0.86590    0.80970    0.88230    1.000
    O56      O        0.83220    0.72520    0.94730    1.000
    N14      N        0.82990    0.88120    0.00230    1.000
    C92      C        0.83460    0.98580    0.04490    1.000
    C93      C        0.81340    0.92070    0.06140    1.000
    C94      C        0.78080    0.90300    0.12880    1.000
    H40      H        0.77010    0.93090    0.17000    1.000
    C95      C        0.76400    0.84190    0.13410    1.000
    H41      H        0.74050    0.82860    0.17890    1.000
    C96      C        0.78080    0.80140    0.07610    1.000
    H42      H        0.76970    0.76010    0.08010    1.000
    C97      C        0.81460    0.82240    0.01090    1.000
    C98      C        0.83940    0.78130    0.94260    1.000
    Tm15     Tm       0.16434    0.36795    0.12604    1.000
    O57      O        0.17660    0.47380    0.09640    1.000
    O58      O        0.13880    0.50550    0.97560    1.000
    O59      O        0.13410    0.69030    0.88230    1.000
    O60      O        0.16780    0.77480    0.94730    1.000
    N15      N        0.17010    0.61880    0.00230    1.000
    C99      C        0.16540    0.51420    0.04490    1.000
    C100     C        0.18660    0.57930    0.06140    1.000
    C101     C        0.21920    0.59700    0.12880    1.000
    H43      H        0.22990    0.56910    0.17000    1.000
    C102     C        0.23600    0.65810    0.13410    1.000
    H44      H        0.25950    0.67140    0.17890    1.000
    C103     C        0.21920    0.69860    0.07610    1.000
    H45      H        0.23030    0.73990    0.08010    1.000
    C104     C        0.18540    0.67760    0.01090    1.000
    C105     C        0.16060    0.71870    0.94260    1.000
    Tm16     Tm       0.66434    0.86795    0.62604    1.000
    O61      O        0.67660    0.97380    0.59640    1.000
    O62      O        0.63880    0.00550    0.47560    1.000
    O63      O        0.63410    0.19030    0.38230    1.000
    O64      O        0.66780    0.27480    0.44730    1.000
    N16      N        0.67010    0.11880    0.50230    1.000
    C106     C        0.66540    0.01420    0.54490    1.000
    C107     C        0.68660    0.07930    0.56140    1.000
    C108     C        0.71920    0.09700    0.62880    1.000
    H46      H        0.72990    0.06910    0.67000    1.000
    C109     C        0.73600    0.15810    0.63410    1.000
    H47      H        0.75950    0.17140    0.67890    1.000
    C110     C        0.71920    0.19860    0.57610    1.000
    H48      H        0.73030    0.23990    0.58010    1.000
    C111     C        0.68540    0.17760    0.51090    1.000
    C112     C        0.66060    0.21870    0.44260    1.000
