# CIF file generated by openbabel 3.1.0, see https://openbabel.org
data_I
_chemical_name_common 'image0'
_cell_length_a 14.3175
_cell_length_b 14.402
_cell_length_c 22.6162
_cell_angle_alpha 90
_cell_angle_beta 100.498
_cell_angle_gamma 90
_space_group_name_H-M_alt 'P 1'
_space_group_name_Hall 'P 1'
loop_
    _symmetry_equiv_pos_as_xyz
    x,y,z
loop_
    _atom_site_label
    _atom_site_type_symbol
    _atom_site_fract_x
    _atom_site_fract_y
    _atom_site_fract_z
    _atom_site_occupancy
    Cd1      Cd       0.75528    0.74707    0.24112    1.000
    Cd2      Cd       0.31474    0.12532    0.13933    1.000
    O1       O        0.80450    0.81970    0.16262    1.000
    O2       O        0.87940    0.86230    0.25330    1.000
    C1       C        0.86780    0.86630    0.19640    1.000
    C2       C        0.93090    0.92790    0.16728    1.000
    C3       C        0.99660    0.98540    0.20130    1.000
    H1       H        0.00170    0.98780    0.24370    1.000
    C4       C        0.05470    0.03960    0.17310    1.000
    C5       C        0.04790    0.03550    0.11120    1.000
    H2       H        0.08860    0.07280    0.09220    1.000
    C6       C        0.98260    0.97780    0.07710    1.000
    C7       C        0.92310    0.92530    0.10500    1.000
    H3       H        0.87630    0.88700    0.08160    1.000
    C8       C        0.98380    0.95030    0.01220    1.000
    H4       H        0.92030    0.93070    0.99080    1.000
    H5       H        0.03070    0.90060    0.00950    1.000
    C9       C        0.12380    0.10750    0.20890    1.000
    O3       O        0.12330    0.12140    0.26277    1.000
    O4       O        0.18050    0.15100    0.18093    1.000
    O5       O        0.39460    0.09400    0.23150    1.000
    O6       O        0.35170    0.15600    0.31312    1.000
    C10      C        0.39640    0.10010    0.28690    1.000
    C11      C        0.46290    0.03400    0.32689    1.000
    C12      C        0.46610    0.03330    0.38830    1.000
    H6       H        0.42770    0.07560    0.40550    1.000
    C13      C        0.52390    0.97220    0.42500    1.000
    C14      C        0.57800    0.91030    0.40010    1.000
    H7       H        0.61630    0.86680    0.42530    1.000
    C15      C        0.57790    0.90980    0.33860    1.000
    C16      C        0.51850    0.97220    0.30160    1.000
    H8       H        0.51640    0.97200    0.25940    1.000
    C17      C        0.53670    0.98800    0.48900    1.000
    H9       H        0.56270    0.93040    0.50960    1.000
    H10      H        0.58550    0.03690    0.49950    1.000
    C18      C        0.63720    0.84180    0.31150    1.000
    O7       O        0.64420    0.85190    0.25780    1.000
    O8       O        0.68030    0.78130    0.34560    1.000
    O9       O        0.96390    0.98290    0.01480    1.000
    O10      O        0.52330    0.95790    0.48810    1.000
    Cd3      Cd       0.24472    0.24707    0.25888    1.000
    Cd4      Cd       0.68526    0.62532    0.36066    1.000
    O11      O        0.19550    0.31970    0.33738    1.000
    O12      O        0.12060    0.36230    0.24670    1.000
    C19      C        0.13220    0.36630    0.30360    1.000
    C20      C        0.06910    0.42790    0.33272    1.000
    C21      C        0.00340    0.48540    0.29870    1.000
    H11      H        0.99830    0.48780    0.25630    1.000
    C22      C        0.94530    0.53960    0.32690    1.000
    C23      C        0.95210    0.53550    0.38880    1.000
    H12      H        0.91140    0.57280    0.40780    1.000
    C24      C        0.01740    0.47780    0.42290    1.000
    C25      C        0.07690    0.42530    0.39500    1.000
    H13      H        0.12370    0.38700    0.41840    1.000
    C26      C        0.01620    0.45030    0.48780    1.000
    H14      H        0.07970    0.43070    0.50920    1.000
    H15      H        0.96930    0.40060    0.49050    1.000
    C27      C        0.87620    0.60750    0.29110    1.000
    O13      O        0.87670    0.62140    0.23723    1.000
    O14      O        0.81950    0.65100    0.31907    1.000
    O15      O        0.60540    0.59400    0.26850    1.000
    O16      O        0.64830    0.65600    0.18688    1.000
    C28      C        0.60360    0.60010    0.21310    1.000
    C29      C        0.53710    0.53400    0.17311    1.000
    C30      C        0.53390    0.53330    0.11170    1.000
    H16      H        0.57230    0.57560    0.09450    1.000
    C31      C        0.47610    0.47220    0.07500    1.000
    C32      C        0.42200    0.41030    0.09990    1.000
    H17      H        0.38370    0.36680    0.07470    1.000
    C33      C        0.42210    0.40980    0.16140    1.000
    C34      C        0.48150    0.47220    0.19840    1.000
    H18      H        0.48360    0.47200    0.24060    1.000
    C35      C        0.46330    0.48800    0.01100    1.000
    H19      H        0.43730    0.43040    0.99040    1.000
    H20      H        0.41450    0.53690    0.00050    1.000
    C36      C        0.36280    0.34180    0.18850    1.000
    O17      O        0.35580    0.35190    0.24220    1.000
    O18      O        0.31970    0.28130    0.15440    1.000
    O19      O        0.03610    0.48290    0.48520    1.000
    O20      O        0.47670    0.45790    0.01190    1.000
    Cd5      Cd       0.24472    0.25293    0.75888    1.000
    Cd6      Cd       0.68526    0.87468    0.86066    1.000
    O21      O        0.19550    0.18030    0.83738    1.000
    O22      O        0.12060    0.13770    0.74670    1.000
    C37      C        0.13220    0.13370    0.80360    1.000
    C38      C        0.06910    0.07210    0.83272    1.000
    C39      C        0.00340    0.01460    0.79870    1.000
    H21      H        0.99830    0.01220    0.75630    1.000
    C40      C        0.94530    0.96040    0.82690    1.000
    C41      C        0.95210    0.96450    0.88880    1.000
    H22      H        0.91140    0.92720    0.90780    1.000
    C42      C        0.01740    0.02220    0.92290    1.000
    C43      C        0.07690    0.07470    0.89500    1.000
    H23      H        0.12370    0.11300    0.91840    1.000
    C44      C        0.01620    0.04970    0.98780    1.000
    H24      H        0.07970    0.06930    0.00920    1.000
    H25      H        0.96930    0.09940    0.99050    1.000
    C45      C        0.87620    0.89250    0.79110    1.000
    O23      O        0.87670    0.87860    0.73723    1.000
    O24      O        0.81950    0.84900    0.81907    1.000
    O25      O        0.60540    0.90600    0.76850    1.000
    O26      O        0.64830    0.84400    0.68688    1.000
    C46      C        0.60360    0.89990    0.71310    1.000
    C47      C        0.53710    0.96600    0.67311    1.000
    C48      C        0.53390    0.96670    0.61170    1.000
    H26      H        0.57230    0.92440    0.59450    1.000
    C49      C        0.47610    0.02780    0.57500    1.000
    C50      C        0.42200    0.08970    0.59990    1.000
    H27      H        0.38370    0.13320    0.57470    1.000
    C51      C        0.42210    0.09020    0.66140    1.000
    C52      C        0.48150    0.02780    0.69840    1.000
    H28      H        0.48360    0.02800    0.74060    1.000
    C53      C        0.46330    0.01200    0.51100    1.000
    H29      H        0.43730    0.06960    0.49040    1.000
    H30      H        0.41450    0.96310    0.50050    1.000
    C54      C        0.36280    0.15820    0.68850    1.000
    O27      O        0.35580    0.14810    0.74220    1.000
    O28      O        0.31970    0.21870    0.65440    1.000
    O29      O        0.03610    0.01710    0.98520    1.000
    O30      O        0.47670    0.04210    0.51190    1.000
    Cd7      Cd       0.75528    0.75293    0.74112    1.000
    Cd8      Cd       0.31474    0.37468    0.63933    1.000
    O31      O        0.80450    0.68030    0.66262    1.000
    O32      O        0.87940    0.63770    0.75330    1.000
    C55      C        0.86780    0.63370    0.69640    1.000
    C56      C        0.93090    0.57210    0.66728    1.000
    C57      C        0.99660    0.51460    0.70130    1.000
    H31      H        0.00170    0.51220    0.74370    1.000
    C58      C        0.05470    0.46040    0.67310    1.000
    C59      C        0.04790    0.46450    0.61120    1.000
    H32      H        0.08860    0.42720    0.59220    1.000
    C60      C        0.98260    0.52220    0.57710    1.000
    C61      C        0.92310    0.57470    0.60500    1.000
    H33      H        0.87630    0.61300    0.58160    1.000
    C62      C        0.98380    0.54970    0.51220    1.000
    H34      H        0.92030    0.56930    0.49080    1.000
    H35      H        0.03070    0.59940    0.50950    1.000
    C63      C        0.12380    0.39250    0.70890    1.000
    O33      O        0.12330    0.37860    0.76277    1.000
    O34      O        0.18050    0.34900    0.68093    1.000
    O35      O        0.39460    0.40600    0.73150    1.000
    O36      O        0.35170    0.34400    0.81312    1.000
    C64      C        0.39640    0.39990    0.78690    1.000
    C65      C        0.46290    0.46600    0.82689    1.000
    C66      C        0.46610    0.46670    0.88830    1.000
    H36      H        0.42770    0.42440    0.90550    1.000
    C67      C        0.52390    0.52780    0.92500    1.000
    C68      C        0.57800    0.58970    0.90010    1.000
    H37      H        0.61630    0.63320    0.92530    1.000
    C69      C        0.57790    0.59020    0.83860    1.000
    C70      C        0.51850    0.52780    0.80160    1.000
    H38      H        0.51640    0.52800    0.75940    1.000
    C71      C        0.53670    0.51200    0.98900    1.000
    H39      H        0.56270    0.56960    0.00960    1.000
    H40      H        0.58550    0.46310    0.99950    1.000
    C72      C        0.63720    0.65820    0.81150    1.000
    O37      O        0.64420    0.64810    0.75780    1.000
    O38      O        0.68030    0.71870    0.84560    1.000
    O39      O        0.96390    0.51710    0.51480    1.000
    O40      O        0.52330    0.54210    0.98810    1.000
