# CIF file generated by openbabel 3.1.0, see https://openbabel.org
data_I
_chemical_name_common 'cm500700z_si_002_clean'
_cell_length_a 13.992
_cell_length_b 17.3793
_cell_length_c 19.34
_cell_angle_alpha 97.8164
_cell_angle_beta 90
_cell_angle_gamma 113.738
_space_group_name_H-M_alt 'P 1'
_space_group_name_Hall 'P 1'
loop_
    _symmetry_equiv_pos_as_xyz
    x,y,z
loop_
    _atom_site_label
    _atom_site_type_symbol
    _atom_site_fract_x
    _atom_site_fract_y
    _atom_site_fract_z
    _atom_site_occupancy
    Eu1      Eu       0.11892    0.12084    0.49884    1.000
    Eu2      Eu       0.88108    0.87916    0.50116    1.000
    Eu3      Eu       0.99808    0.87916    0.00116    1.000
    Eu4      Eu       0.00192    0.12084    0.99884    1.000
    H1       H        0.83050    0.44680    0.41470    1.000
    H2       H        0.38370    0.55320    0.08530    1.000
    H3       H        0.95790    0.23260    0.63550    1.000
    H4       H        0.42710    0.30040    0.20890    1.000
    H5       H        0.31330    0.40380    0.04800    1.000
    H6       H        0.09050    0.40380    0.54800    1.000
    H7       H        0.55360    0.94360    0.19580    1.000
    H8       H        0.27860    0.96940    0.83700    1.000
    H9       H        0.40320    0.53580    0.69280    1.000
    H10      H        0.26240    0.00400    0.16600    1.000
    H11      H        0.22520    0.66940    0.61850    1.000
    H12      H        0.90950    0.59620    0.45200    1.000
    H13      H        0.66290    0.61040    0.35250    1.000
    H14      H        0.25840    0.99600    0.33400    1.000
    H15      H        0.61630    0.44680    0.91470    1.000
    H16      H        0.69080    0.96940    0.33700    1.000
    H17      H        0.74160    0.00400    0.66600    1.000
    H18      H        0.72530    0.76740    0.86450    1.000
    H19      H        0.44350    0.87020    0.71830    1.000
    H20      H        0.86740    0.46420    0.80720    1.000
    H21      H        0.04210    0.76740    0.36450    1.000
    H22      H        0.57330    0.12980    0.78170    1.000
    H23      H        0.94750    0.61040    0.85250    1.000
    H24      H        0.91520    0.17860    0.45790    1.000
    H25      H        0.72140    0.03060    0.16300    1.000
    H26      H        0.05250    0.38960    0.14750    1.000
    H27      H        0.16740    0.73740    0.57840    1.000
    H28      H        0.16950    0.55320    0.58530    1.000
    H29      H        0.73660    0.82140    0.04210    1.000
    H30      H        0.87330    0.30040    0.70890    1.000
    H31      H        0.39000    0.94360    0.69580    1.000
    H32      H        0.35540    0.93080    0.27070    1.000
    H33      H        0.80000    0.35180    0.77450    1.000
    H34      H        0.64460    0.06920    0.72930    1.000
    H35      H        0.33710    0.38960    0.64750    1.000
    H36      H        0.12670    0.69960    0.29110    1.000
    H37      H        0.59680    0.46420    0.30720    1.000
    H38      H        0.13260    0.53580    0.19280    1.000
    H39      H        0.44820    0.64820    0.72550    1.000
    H40      H        0.20000    0.64820    0.22550    1.000
    H41      H        0.68670    0.59620    0.95200    1.000
    H42      H        0.61000    0.05640    0.30420    1.000
    H43      H        0.42670    0.87020    0.21830    1.000
    H44      H        0.55580    0.33060    0.88150    1.000
    H45      H        0.27470    0.23260    0.13550    1.000
    H46      H        0.08480    0.82140    0.54210    1.000
    H47      H        0.83260    0.26260    0.42160    1.000
    H48      H        0.42460    0.06920    0.22930    1.000
    H49      H        0.57290    0.69960    0.79110    1.000
    H50      H        0.77480    0.33060    0.38150    1.000
    H51      H        0.57540    0.93080    0.77070    1.000
    H52      H        0.44420    0.66940    0.11850    1.000
    H53      H        0.26340    0.17860    0.95790    1.000
    H54      H        0.44640    0.05640    0.80420    1.000
    H55      H        0.73760    0.99600    0.83400    1.000
    H56      H        0.55650    0.12980    0.28170    1.000
    H57      H        0.43000    0.26260    0.92160    1.000
    H58      H        0.30920    0.03060    0.66300    1.000
    H59      H        0.57000    0.73740    0.07840    1.000
    H60      H        0.55180    0.35180    0.27450    1.000
    C1       C        0.14550    0.84580    0.57310    1.000
    C2       C        0.24880    0.80340    0.27430    1.000
    C3       C        0.59230    0.92040    0.16600    1.000
    C4       C        0.39340    0.10280    0.21190    1.000
    C5       C        0.30140    0.42280    0.63570    1.000
    C6       C        0.82800    0.61540    0.90780    1.000
    C7       C        0.32810    0.92040    0.66600    1.000
    C8       C        0.80010    0.48240    0.40000    1.000
    C9       C        0.28030    0.83280    0.64070    1.000
    C10      C        0.72500    0.56980    0.92510    1.000
    C11      C        0.29780    0.06420    0.17270    1.000
    C12      C        0.26760    0.55120    0.14370    1.000
    C13      C        0.70940    0.10280    0.71190    1.000
    C14      C        0.76640    0.06420    0.67270    1.000
    C15      C        0.33040    0.77880    0.66450    1.000
    C16      C        0.46400    0.76660    0.72750    1.000
    C17      C        0.70030    0.84580    0.07310    1.000
    C18      C        0.71970    0.16720    0.35930    1.000
    C19      C        0.89580    0.19960    0.65600    1.000
    C20      C        0.60230    0.79660    0.09520    1.000
    C21      C        0.44540    0.19660    0.22570    1.000
    C22      C        0.85690    0.11060    0.64360    1.000
    C23      C        0.14310    0.88940    0.35640    1.000
    C24      C        0.31640    0.64580    0.16810    1.000
    C25      C        0.68360    0.35420    0.83190    1.000
    C26      C        0.23360    0.93580    0.32730    1.000
    C27      C        0.74260    0.93280    0.09850    1.000
    C28      C        0.68230    0.48240    0.90000    1.000
    C29      C        0.39770    0.20340    0.90480    1.000
    C30      C        0.44750    0.16720    0.85930    1.000
    C31      C        0.67190    0.07960    0.33400    1.000
    C32      C        0.39710    0.24020    0.19870    1.000
    C33      C        0.08730    0.93400    0.39870    1.000
    C34      C        0.28140    0.97140    0.64590    1.000
    C35      C        0.82860    0.70920    0.43760    1.000
    C36      C        0.65890    0.49140    0.33690    1.000
    C37      C        0.17200    0.38460    0.09220    1.000
    C38      C        0.19020    0.93280    0.59850    1.000
    C39      C        0.15690    0.75980    0.30130    1.000
    C40      C        0.31770    0.51760    0.10000    1.000
    C41      C        0.84310    0.24020    0.69870    1.000
    C42      C        0.88060    0.70920    0.93760    1.000
    C43      C        0.69620    0.80040    0.84400    1.000
    C44      C        0.60660    0.89720    0.78810    1.000
    C45      C        0.84610    0.99040    0.07540    1.000
    C46      C        0.71640    0.44880    0.35630    1.000
    C47      C        0.27500    0.43020    0.07490    1.000
    C48      C        0.15330    0.06600    0.10130    1.000
    C49      C        0.60290    0.75980    0.80130    1.000
    C50      C        0.67060    0.35420    0.33190    1.000
    C51      C        0.21260    0.38460    0.59220    1.000
    C52      C        0.91270    0.06600    0.60130    1.000
    C53      C        0.32940    0.64580    0.66810    1.000
    C54      C        0.29970    0.15420    0.92690    1.000
    C55      C        0.73240    0.44880    0.85630    1.000
    C56      C        0.29060    0.89720    0.28810    1.000
    C57      C        0.17140    0.29080    0.56240    1.000
    C58      C        0.74630    0.88940    0.85640    1.000
    C59      C        0.55160    0.22120    0.83550    1.000
    C60      C        0.83250    0.49140    0.83690    1.000
    C61      C        0.34110    0.50860    0.66310    1.000
    C62      C        0.69000    0.97140    0.14590    1.000
    C63      C        0.19990    0.51760    0.60000    1.000
    C64      C        0.28360    0.55120    0.64370    1.000
    C65      C        0.15520    0.43020    0.57490    1.000
    C66      C        0.80980    0.06720    0.40150    1.000
    C67      C        0.66960    0.22120    0.33550    1.000
    C68      C        0.10420    0.80040    0.34400    1.000
    C69      C        0.14430    0.99040    0.57540    1.000
    C70      C        0.30260    0.76660    0.22750    1.000
    C71      C        0.53600    0.23340    0.27250    1.000
    C72      C        0.75120    0.19660    0.72570    1.000
    C73      C        0.11940    0.29080    0.06240    1.000
    C74      C        0.71860    0.02860    0.35410    1.000
    C75      C        0.69740    0.23340    0.77250    1.000
    C76      C        0.15390    0.00960    0.92460    1.000
    C77      C        0.70220    0.93580    0.82730    1.000
    C78      C        0.85570    0.00960    0.42460    1.000
    C79      C        0.78740    0.61540    0.40780    1.000
    C80      C        0.40770    0.07960    0.83400    1.000
    C81      C        0.25370    0.11060    0.14360    1.000
    C82      C        0.87860    0.57720    0.86430    1.000
    C83      C        0.19430    0.79660    0.59520    1.000
    C84      C        0.12140    0.42280    0.13570    1.000
    C85      C        0.25740    0.06720    0.90150    1.000
    C86      C        0.84670    0.93400    0.89870    1.000
    C87      C        0.31000    0.02860    0.85410    1.000
    C88      C        0.84480    0.56980    0.42510    1.000
    C89      C        0.44840    0.77880    0.16450    1.000
    C90      C        0.55460    0.80340    0.77430    1.000
    C91      C        0.55250    0.83280    0.14070    1.000
    C92      C        0.69860    0.57720    0.36430    1.000
    C93      C        0.16750    0.50860    0.16310    1.000
    C94      C        0.80570    0.20340    0.40480    1.000
    C95      C        0.30380    0.19960    0.15600    1.000
    C96      C        0.85450    0.15420    0.42690    1.000
    N1       N        0.39850    0.81480    0.20520    1.000
    N2       N        0.28370    0.69320    0.64520    1.000
    N3       N        0.26020    0.68020    0.21030    1.000
    N4       N        0.59050    0.30680    0.85480    1.000
    N5       N        0.73980    0.31980    0.78970    1.000
    N6       N        0.41630    0.81480    0.70520    1.000
    N7       N        0.58000    0.31980    0.28970    1.000
    N8       N        0.60150    0.18520    0.79480    1.000
    N9       N        0.40950    0.69320    0.14520    1.000
    N10      N        0.42000    0.68020    0.71030    1.000
    N11      N        0.71630    0.30680    0.35480    1.000
    N12      N        0.58370    0.18520    0.29480    1.000
    O1       O        0.09570    0.04460    0.94990    1.000
    O2       O        0.86780    0.06700    0.08000    1.000
    O3       O        0.78510    0.75140    0.41680    1.000
    O4       O        0.86160    0.98920    0.57920    1.000
    O5       O        0.16290    0.26040    0.01730    1.000
    O6       O        0.96630    0.75140    0.91680    1.000
    O7       O        0.05110    0.95540    0.55010    1.000
    O8       O        0.00380    0.10980    0.58960    1.000
    O9       O        0.09750    0.26040    0.51730    1.000
    O10      O        0.83710    0.73960    0.98270    1.000
    O11      O        0.89400    0.89020    0.91040    1.000
    O12      O        0.94890    0.04460    0.44990    1.000
    O13      O        0.13840    0.01080    0.42080    1.000
    O14      O        0.87240    0.01080    0.92080    1.000
    O15      O        0.90250    0.73960    0.48270    1.000
    O16      O        0.90430    0.95540    0.05010    1.000
    O17      O        0.13220    0.93300    0.92000    1.000
    O18      O        0.99620    0.89020    0.41040    1.000
    O19      O        0.21490    0.24860    0.58320    1.000
    O20      O        0.03370    0.24860    0.08320    1.000
    O21      O        0.19920    0.06700    0.58000    1.000
    O22      O        0.10600    0.10980    0.08960    1.000
    O23      O        0.80080    0.93300    0.42000    1.000
    O24      O        0.12760    0.98920    0.07920    1.000
