# CIF file generated by openbabel 3.1.0, see https://openbabel.org
data_I
_chemical_name_common 'image0'
_cell_length_a 9.1428
_cell_length_b 16.0129
_cell_length_c 15.1324
_cell_angle_alpha 90
_cell_angle_beta 93.151
_cell_angle_gamma 90
_space_group_name_H-M_alt 'P 1'
_space_group_name_Hall 'P 1'
loop_
    _symmetry_equiv_pos_as_xyz
    x,y,z
loop_
    _atom_site_label
    _atom_site_type_symbol
    _atom_site_fract_x
    _atom_site_fract_y
    _atom_site_fract_z
    _atom_site_occupancy
    Co1      Co       0.39054    0.36526    0.66464    1.000
    Co2      Co       0.46907    0.14219    0.70795    1.000
    O1       O        0.56425    0.19854    0.60208    1.000
    O2       O        0.58925    0.33727    0.62083    1.000
    O3       O        0.15350    0.36657    0.65418    1.000
    O4       O        0.27910    0.32131    0.54710    1.000
    O5       O        0.92740    0.12364    0.30286    1.000
    O6       O        0.87369    0.24821    0.25251    1.000
    O7       O        0.45660    0.97570    0.33358    1.000
    O8       O        0.29960    0.03756    0.23626    1.000
    H1       H        0.26720    0.99010    0.22970    1.000
    O9       O        0.16097    0.32466    0.28306    1.000
    O10      O        0.34110    0.41472    0.31521    1.000
    N1       N        0.27950    0.11145    0.62480    1.000
    C1       C        0.62570    0.26678    0.59051    1.000
    C2       C        0.76210    0.26685    0.53825    1.000
    C3       C        0.89120    0.29787    0.57963    1.000
    H2       H        0.88920    0.32220    0.63540    1.000
    C4       C        0.02270    0.29267    0.53815    1.000
    C5       C        0.15900    0.32936    0.58220    1.000
    C6       C        0.02590    0.25574    0.45502    1.000
    H3       H        0.11490    0.24830    0.42900    1.000
    C7       C        0.89610    0.22996    0.41067    1.000
    C8       C        0.90070    0.19898    0.31698    1.000
    C9       C        0.76170    0.23550    0.45136    1.000
    C10      C        0.61900    0.21705    0.40192    1.000
    C11      C        0.57870    0.13657    0.37476    1.000
    H4       H        0.64150    0.09180    0.38690    1.000
    C12      C        0.44380    0.12359    0.32935    1.000
    C13      C        0.40050    0.03796    0.29895    1.000
    C14      C        0.34850    0.18988    0.31020    1.000
    H5       H        0.25820    0.18030    0.28060    1.000
    C15      C        0.38930    0.27032    0.33563    1.000
    C16      C        0.52400    0.28320    0.38188    1.000
    H6       H        0.55070    0.33700    0.39960    1.000
    C17      C        0.28860    0.34151    0.30940    1.000
    C18      C        0.30080    0.08060    0.54455    1.000
    H7       H        0.39190    0.08830    0.52130    1.000
    C19      C        0.19460    0.03780    0.49407    1.000
    H8       H        0.21590    0.01740    0.43870    1.000
    C20      C        0.05720    0.02512    0.52526    1.000
    C21      C        0.03230    0.06060    0.60690    1.000
    H9       H        0.94050    0.05630    0.63010    1.000
    C22      C        0.14460    0.10240    0.65360    1.000
    H10      H        0.12500    0.12550    0.70810    1.000
    Co3      Co       0.10946    0.86526    0.83536    1.000
    Co4      Co       0.03093    0.64219    0.79205    1.000
    O11      O        0.93575    0.69854    0.89792    1.000
    O12      O        0.91075    0.83727    0.87917    1.000
    O13      O        0.34650    0.86657    0.84582    1.000
    O14      O        0.22090    0.82131    0.95290    1.000
    O15      O        0.57260    0.62364    0.19714    1.000
    O16      O        0.62631    0.74821    0.24749    1.000
    O17      O        0.04340    0.47570    0.16642    1.000
    O18      O        0.20040    0.53756    0.26374    1.000
    H11      H        0.23280    0.49010    0.27030    1.000
    O19      O        0.33903    0.82466    0.21694    1.000
    O20      O        0.15890    0.91472    0.18479    1.000
    N2       N        0.22050    0.61145    0.87520    1.000
    C23      C        0.87430    0.76678    0.90949    1.000
    C24      C        0.73790    0.76685    0.96175    1.000
    C25      C        0.60880    0.79787    0.92037    1.000
    H12      H        0.61080    0.82220    0.86460    1.000
    C26      C        0.47730    0.79267    0.96185    1.000
    C27      C        0.34100    0.82936    0.91780    1.000
    C28      C        0.47410    0.75574    0.04498    1.000
    H13      H        0.38510    0.74830    0.07100    1.000
    C29      C        0.60390    0.72996    0.08933    1.000
    C30      C        0.59930    0.69898    0.18302    1.000
    C31      C        0.73830    0.73550    0.04864    1.000
    C32      C        0.88100    0.71705    0.09808    1.000
    C33      C        0.92130    0.63657    0.12524    1.000
    H14      H        0.85850    0.59180    0.11310    1.000
    C34      C        0.05620    0.62359    0.17065    1.000
    C35      C        0.09950    0.53796    0.20105    1.000
    C36      C        0.15150    0.68988    0.18980    1.000
    H15      H        0.24180    0.68030    0.21940    1.000
    C37      C        0.11070    0.77032    0.16437    1.000
    C38      C        0.97600    0.78320    0.11812    1.000
    H16      H        0.94930    0.83700    0.10040    1.000
    C39      C        0.21140    0.84151    0.19060    1.000
    C40      C        0.19920    0.58060    0.95545    1.000
    H17      H        0.10810    0.58830    0.97870    1.000
    C41      C        0.30540    0.53780    0.00593    1.000
    H18      H        0.28410    0.51740    0.06130    1.000
    C42      C        0.44280    0.52512    0.97474    1.000
    C43      C        0.46770    0.56060    0.89310    1.000
    H19      H        0.55950    0.55630    0.86990    1.000
    C44      C        0.35540    0.60240    0.84640    1.000
    H20      H        0.37500    0.62550    0.79190    1.000
    Co5      Co       0.60946    0.63474    0.33536    1.000
    Co6      Co       0.53093    0.85781    0.29205    1.000
    O21      O        0.43575    0.80146    0.39792    1.000
    O22      O        0.41075    0.66273    0.37917    1.000
    O23      O        0.84650    0.63343    0.34582    1.000
    O24      O        0.72090    0.67869    0.45290    1.000
    O25      O        0.07260    0.87636    0.69714    1.000
    O26      O        0.12631    0.75179    0.74749    1.000
    O27      O        0.54340    0.02430    0.66642    1.000
    O28      O        0.70040    0.96244    0.76374    1.000
    H21      H        0.73280    0.00990    0.77030    1.000
    O29      O        0.83903    0.67534    0.71694    1.000
    O30      O        0.65890    0.58528    0.68479    1.000
    N3       N        0.72050    0.88855    0.37520    1.000
    C45      C        0.37430    0.73322    0.40949    1.000
    C46      C        0.23790    0.73315    0.46175    1.000
    C47      C        0.10880    0.70213    0.42037    1.000
    H22      H        0.11080    0.67780    0.36460    1.000
    C48      C        0.97730    0.70733    0.46185    1.000
    C49      C        0.84100    0.67064    0.41780    1.000
    C50      C        0.97410    0.74426    0.54498    1.000
    H23      H        0.88510    0.75170    0.57100    1.000
    C51      C        0.10390    0.77004    0.58933    1.000
    C52      C        0.09930    0.80102    0.68302    1.000
    C53      C        0.23830    0.76450    0.54864    1.000
    C54      C        0.38100    0.78295    0.59808    1.000
    C55      C        0.42130    0.86343    0.62524    1.000
    H24      H        0.35850    0.90820    0.61310    1.000
    C56      C        0.55620    0.87641    0.67065    1.000
    C57      C        0.59950    0.96204    0.70105    1.000
    C58      C        0.65150    0.81012    0.68980    1.000
    H25      H        0.74180    0.81970    0.71940    1.000
    C59      C        0.61070    0.72968    0.66437    1.000
    C60      C        0.47600    0.71680    0.61812    1.000
    H26      H        0.44930    0.66300    0.60040    1.000
    C61      C        0.71140    0.65849    0.69060    1.000
    C62      C        0.69920    0.91940    0.45545    1.000
    H27      H        0.60810    0.91170    0.47870    1.000
    C63      C        0.80540    0.96220    0.50593    1.000
    H28      H        0.78410    0.98260    0.56130    1.000
    C64      C        0.94280    0.97488    0.47474    1.000
    C65      C        0.96770    0.93940    0.39310    1.000
    H29      H        0.05950    0.94370    0.36990    1.000
    C66      C        0.85540    0.89760    0.34640    1.000
    H30      H        0.87500    0.87450    0.29190    1.000
    Co7      Co       0.89054    0.13474    0.16464    1.000
    Co8      Co       0.96907    0.35781    0.20795    1.000
    O31      O        0.06425    0.30146    0.10208    1.000
    O32      O        0.08925    0.16273    0.12083    1.000
    O33      O        0.65350    0.13343    0.15418    1.000
    O34      O        0.77910    0.17869    0.04710    1.000
    O35      O        0.42740    0.37636    0.80286    1.000
    O36      O        0.37369    0.25179    0.75251    1.000
    O37      O        0.95660    0.52430    0.83358    1.000
    O38      O        0.79960    0.46244    0.73626    1.000
    H31      H        0.76720    0.50990    0.72970    1.000
    O39      O        0.66097    0.17534    0.78306    1.000
    O40      O        0.84110    0.08528    0.81521    1.000
    N4       N        0.77950    0.38855    0.12480    1.000
    C67      C        0.12570    0.23322    0.09051    1.000
    C68      C        0.26210    0.23315    0.03825    1.000
    C69      C        0.39120    0.20213    0.07963    1.000
    H32      H        0.38920    0.17780    0.13540    1.000
    C70      C        0.52270    0.20733    0.03815    1.000
    C71      C        0.65900    0.17064    0.08220    1.000
    C72      C        0.52590    0.24426    0.95502    1.000
    H33      H        0.61490    0.25170    0.92900    1.000
    C73      C        0.39610    0.27004    0.91067    1.000
    C74      C        0.40070    0.30102    0.81698    1.000
    C75      C        0.26170    0.26450    0.95136    1.000
    C76      C        0.11900    0.28295    0.90192    1.000
    C77      C        0.07870    0.36343    0.87476    1.000
    H34      H        0.14150    0.40820    0.88690    1.000
    C78      C        0.94380    0.37641    0.82935    1.000
    C79      C        0.90050    0.46204    0.79895    1.000
    C80      C        0.84850    0.31012    0.81020    1.000
    H35      H        0.75820    0.31970    0.78060    1.000
    C81      C        0.88930    0.22968    0.83563    1.000
    C82      C        0.02400    0.21680    0.88188    1.000
    H36      H        0.05070    0.16300    0.89960    1.000
    C83      C        0.78860    0.15849    0.80940    1.000
    C84      C        0.80080    0.41940    0.04455    1.000
    H37      H        0.89190    0.41170    0.02130    1.000
    C85      C        0.69460    0.46220    0.99407    1.000
    H38      H        0.71590    0.48260    0.93870    1.000
    C86      C        0.55720    0.47488    0.02526    1.000
    C87      C        0.53230    0.43940    0.10690    1.000
    H39      H        0.44050    0.44370    0.13010    1.000
    C88      C        0.64460    0.39760    0.15360    1.000
    H40      H        0.62500    0.37450    0.20810    1.000
