# CIF file generated by openbabel 3.1.0, see https://openbabel.org
data_I
_chemical_name_common 'image0'
_cell_length_a 10.95
_cell_length_b 17.7
_cell_length_c 7.843
_cell_angle_alpha 90
_cell_angle_beta 102.33
_cell_angle_gamma 90
_space_group_name_H-M_alt 'P 1'
_space_group_name_Hall 'P 1'
loop_
    _symmetry_equiv_pos_as_xyz
    x,y,z
loop_
    _atom_site_label
    _atom_site_type_symbol
    _atom_site_fract_x
    _atom_site_fract_y
    _atom_site_fract_z
    _atom_site_occupancy
    C1       C        0.35900    0.40000    0.09250    1.000
    C2       C        0.30260    0.32320    0.04410    1.000
    C3       C        0.17880    0.30770    0.03790    1.000
    C4       C        0.12740    0.23760    0.99400    1.000
    F1       F        0.10480    0.36471    0.07120    1.000
    F2       F        0.00470    0.22824    0.98810    1.000
    O1       O        0.35370    0.42601    0.23720    1.000
    O2       O        0.41160    0.43239    0.98440    1.000
    C5       C        0.85900    0.90000    0.09250    1.000
    C6       C        0.80260    0.82320    0.04410    1.000
    C7       C        0.67880    0.80770    0.03790    1.000
    C8       C        0.62740    0.73760    0.99400    1.000
    F3       F        0.60480    0.86471    0.07120    1.000
    F4       F        0.50470    0.72824    0.98810    1.000
    O3       O        0.85370    0.92601    0.23720    1.000
    O4       O        0.91160    0.93239    0.98440    1.000
    C9       C        0.64100    0.40000    0.40750    1.000
    C10      C        0.69740    0.32320    0.45590    1.000
    C11      C        0.82120    0.30770    0.46210    1.000
    C12      C        0.87260    0.23760    0.50600    1.000
    F5       F        0.89520    0.36471    0.42880    1.000
    F6       F        0.99530    0.22824    0.51190    1.000
    O5       O        0.64630    0.42601    0.26280    1.000
    O6       O        0.58840    0.43239    0.51560    1.000
    C13      C        0.14100    0.90000    0.40750    1.000
    C14      C        0.19740    0.82320    0.45590    1.000
    C15      C        0.32120    0.80770    0.46210    1.000
    C16      C        0.37260    0.73760    0.50600    1.000
    F7       F        0.39520    0.86471    0.42880    1.000
    F8       F        0.49530    0.72824    0.51190    1.000
    O7       O        0.14630    0.92601    0.26280    1.000
    O8       O        0.08840    0.93239    0.51560    1.000
    C17      C        0.64100    0.60000    0.90750    1.000
    C18      C        0.69740    0.67680    0.95590    1.000
    C19      C        0.82120    0.69230    0.96210    1.000
    C20      C        0.87260    0.76240    0.00600    1.000
    F9       F        0.89520    0.63529    0.92880    1.000
    F10      F        0.99530    0.77176    0.01190    1.000
    O9       O        0.64630    0.57399    0.76280    1.000
    O10      O        0.58840    0.56761    0.01560    1.000
    C21      C        0.14100    0.10000    0.90750    1.000
    C22      C        0.19740    0.17680    0.95590    1.000
    C23      C        0.32120    0.19230    0.96210    1.000
    C24      C        0.37260    0.26240    0.00600    1.000
    F11      F        0.39520    0.13529    0.92880    1.000
    F12      F        0.49530    0.27176    0.01190    1.000
    O11      O        0.14630    0.07399    0.76280    1.000
    O12      O        0.08840    0.06761    0.01560    1.000
    C25      C        0.35900    0.60000    0.59250    1.000
    C26      C        0.30260    0.67680    0.54410    1.000
    C27      C        0.17880    0.69230    0.53790    1.000
    C28      C        0.12740    0.76240    0.49400    1.000
    F13      F        0.10480    0.63529    0.57120    1.000
    F14      F        0.00470    0.77176    0.48810    1.000
    O13      O        0.35370    0.57399    0.73720    1.000
    O14      O        0.41160    0.56761    0.48440    1.000
    C29      C        0.85900    0.10000    0.59250    1.000
    C30      C        0.80260    0.17680    0.54410    1.000
    C31      C        0.67880    0.19230    0.53790    1.000
    C32      C        0.62740    0.26240    0.49400    1.000
    F15      F        0.60480    0.13529    0.57120    1.000
    F16      F        0.50470    0.27176    0.48810    1.000
    O15      O        0.85370    0.07399    0.73720    1.000
    O16      O        0.91160    0.06761    0.48440    1.000
    Ca1      Ca       0.50000    0.53217    0.25000    1.000
    Ca2      Ca       0.00000    0.03217    0.25000    1.000
    Ca3      Ca       0.50000    0.46783    0.75000    1.000
    Ca4      Ca       0.00000    0.96783    0.75000    1.000
