# CIF file generated by openbabel 3.1.0, see https://openbabel.org
data_I
_chemical_name_common 'image0'
_cell_length_a 8.7652
_cell_length_b 22.1004
_cell_length_c 10.4417
_cell_angle_alpha 90
_cell_angle_beta 91.874
_cell_angle_gamma 90
_space_group_name_H-M_alt 'P 1'
_space_group_name_Hall 'P 1'
loop_
    _symmetry_equiv_pos_as_xyz
    x,y,z
loop_
    _atom_site_label
    _atom_site_type_symbol
    _atom_site_fract_x
    _atom_site_fract_y
    _atom_site_fract_z
    _atom_site_occupancy
    Ag1      Ag       0.34332    0.80347    0.51196    1.000
    Ag2      Ag       0.25102    0.70781    0.75673    1.000
    Ag3      Ag       0.17730    0.79584    0.01653    1.000
    N1       N        0.37310    0.70413    0.47930    1.000
    N2       N        0.37320    0.66854    0.58470    1.000
    N3       N        0.55450    0.39579    0.46290    1.000
    N4       N        0.60420    0.43221    0.36940    1.000
    N5       N        0.11410    0.82542    0.62240    1.000
    N6       N        0.06310    0.77886    0.69220    1.000
    N7       N        0.45060    0.77395    0.82600    1.000
    N8       N        0.39920    0.81906    0.90180    1.000
    N9       N        0.12490    0.66478    0.92210    1.000
    N10      N        0.12260    0.69635    0.03310    1.000
    N11      N        0.93570    0.38783    0.00620    1.000
    N12      N        0.88940    0.42100    0.10590    1.000
    C1       C        0.40290    0.61020    0.57510    1.000
    H1       H        0.40440    0.58680    0.65030    1.000
    C2       C        0.43250    0.58104    0.45870    1.000
    C3       C        0.42710    0.61687    0.35130    1.000
    H2       H        0.44160    0.60020    0.26970    1.000
    C4       C        0.39950    0.67893    0.36640    1.000
    H3       H        0.39950    0.70390    0.29340    1.000
    C5       C        0.56170    0.48944    0.36820    1.000
    H4       H        0.59650    0.51430    0.30220    1.000
    C6       C        0.46790    0.51562    0.45930    1.000
    C7       C        0.41510    0.47784    0.55200    1.000
    H5       H        0.34890    0.49180    0.61450    1.000
    C8       C        0.46380    0.41756    0.54980    1.000
    H6       H        0.42990    0.39120    0.61360    1.000
    C9       C        0.02850    0.87444    0.60850    1.000
    H7       H        0.06680    0.90700    0.56130    1.000
    C10      C        0.88480    0.88040    0.65970    1.000
    H8       H        0.82780    0.91620    0.64860    1.000
    C11      C        0.82860    0.83226    0.72720    1.000
    C12      C        0.92630    0.78222    0.74180    1.000
    H9       H        0.89250    0.74910    0.78970    1.000
    C13      C        0.58330    0.77984    0.77100    1.000
    H10      H        0.61670    0.74810    0.71900    1.000
    C14      C        0.67760    0.83111    0.78610    1.000
    C15      C        0.62140    0.87780    0.85690    1.000
    H11      H        0.67580    0.91420    0.86710    1.000
    C16      C        0.48060    0.86948    0.91340    1.000
    H12      H        0.44160    0.90130    0.96220    1.000
    C17      C        0.09020    0.60634    0.92150    1.000
    H13      H        0.08950    0.58560    0.84290    1.000
    C18      C        0.05470    0.57376    0.03200    1.000
    C19      C        0.05540    0.60556    0.14480    1.000
    H14      H        0.03530    0.58640    0.22280    1.000
    C20      C        0.08710    0.66761    0.13990    1.000
    H15      H        0.08310    0.69010    0.21620    1.000
    C21      C        0.02070    0.41280    0.91870    1.000
    H16      H        0.05190    0.38860    0.85030    1.000
    C22      C        0.06690    0.47331    0.92230    1.000
    H17      H        0.12930    0.48950    0.85930    1.000
    C23      C        0.01740    0.50830    0.02190    1.000
    C24      C        0.93000    0.47845    0.11240    1.000
    H18      H        0.89790    0.50100    0.18300    1.000
    Ag4      Ag       0.65668    0.30347    0.48804    1.000
    Ag5      Ag       0.74898    0.20781    0.24327    1.000
    Ag6      Ag       0.82270    0.29584    0.98347    1.000
    N13      N        0.62690    0.20413    0.52070    1.000
    N14      N        0.62680    0.16854    0.41530    1.000
    N15      N        0.44550    0.89579    0.53710    1.000
    N16      N        0.39580    0.93221    0.63060    1.000
    N17      N        0.88590    0.32542    0.37760    1.000
    N18      N        0.93690    0.27886    0.30780    1.000
    N19      N        0.54940    0.27395    0.17400    1.000
    N20      N        0.60080    0.31906    0.09820    1.000
    N21      N        0.87510    0.16478    0.07790    1.000
    N22      N        0.87740    0.19635    0.96690    1.000
    N23      N        0.06430    0.88783    0.99380    1.000
    N24      N        0.11060    0.92100    0.89410    1.000
    C25      C        0.59710    0.11020    0.42490    1.000
    H19      H        0.59560    0.08680    0.34970    1.000
    C26      C        0.56750    0.08104    0.54130    1.000
    C27      C        0.57290    0.11687    0.64870    1.000
    H20      H        0.55840    0.10020    0.73030    1.000
    C28      C        0.60050    0.17893    0.63360    1.000
    H21      H        0.60050    0.20390    0.70660    1.000
    C29      C        0.43830    0.98944    0.63180    1.000
    H22      H        0.40350    0.01430    0.69780    1.000
    C30      C        0.53210    0.01562    0.54070    1.000
    C31      C        0.58490    0.97784    0.44800    1.000
    H23      H        0.65110    0.99180    0.38550    1.000
    C32      C        0.53620    0.91756    0.45020    1.000
    H24      H        0.57010    0.89120    0.38640    1.000
    C33      C        0.97150    0.37444    0.39150    1.000
    H25      H        0.93320    0.40700    0.43870    1.000
    C34      C        0.11520    0.38040    0.34030    1.000
    H26      H        0.17220    0.41620    0.35140    1.000
    C35      C        0.17140    0.33226    0.27280    1.000
    C36      C        0.07370    0.28222    0.25820    1.000
    H27      H        0.10750    0.24910    0.21030    1.000
    C37      C        0.41670    0.27984    0.22900    1.000
    H28      H        0.38330    0.24810    0.28100    1.000
    C38      C        0.32240    0.33111    0.21390    1.000
    C39      C        0.37860    0.37780    0.14310    1.000
    H29      H        0.32420    0.41420    0.13290    1.000
    C40      C        0.51940    0.36948    0.08660    1.000
    H30      H        0.55840    0.40130    0.03780    1.000
    C41      C        0.90980    0.10634    0.07850    1.000
    H31      H        0.91050    0.08560    0.15710    1.000
    C42      C        0.94530    0.07376    0.96800    1.000
    C43      C        0.94460    0.10556    0.85520    1.000
    H32      H        0.96470    0.08640    0.77720    1.000
    C44      C        0.91290    0.16761    0.86010    1.000
    H33      H        0.91690    0.19010    0.78380    1.000
    C45      C        0.97930    0.91280    0.08130    1.000
    H34      H        0.94810    0.88860    0.14970    1.000
    C46      C        0.93310    0.97331    0.07770    1.000
    H35      H        0.87070    0.98950    0.14070    1.000
    C47      C        0.98260    0.00830    0.97810    1.000
    C48      C        0.07000    0.97845    0.88760    1.000
    H36      H        0.10210    0.00100    0.81700    1.000
