# CIF file generated by openbabel 3.1.0, see https://openbabel.org
data_I
_chemical_name_common 'ERIRIG_tobacco'
_cell_length_a 37.072
_cell_length_b 37.072
_cell_length_c 30.0333
_cell_angle_alpha 90
_cell_angle_beta 90
_cell_angle_gamma 120
_space_group_name_H-M_alt 'P 1'
_space_group_name_Hall 'P 1'
loop_
    _symmetry_equiv_pos_as_xyz
    x,y,z
loop_
    _atom_site_label
    _atom_site_type_symbol
    _atom_site_fract_x
    _atom_site_fract_y
    _atom_site_fract_z
    _atom_site_occupancy
    X1       C        0.02226    0.97844    0.24989    1.000
    C2       C        0.97843    0.95713    0.25052    1.000
    X3       C        0.95647    0.97901    0.25116    1.000
    C4       C        0.97900    0.02292    0.25149    1.000
    X5       C        0.02318    0.04551    0.25053    1.000
    C6       C        0.04422    0.02237    0.24957    1.000
    H7       H        0.96134    0.92337    0.25052    1.000
    H8       H        0.96160    0.03923    0.25105    1.000
    H9       H        0.07791    0.03826    0.25000    1.000
    X10      C        0.04399    0.02356    0.75063    1.000
    C11      C        0.02095    0.04470    0.74880    1.000
    X12      C        0.97667    0.02330    0.75111    1.000
    C13      C        0.95575    0.97916    0.75394    1.000
    X14      C        0.97763    0.95717    0.75395    1.000
    C15      C        0.02141    0.97955    0.75295    1.000
    H16      H        0.03796    0.07833    0.74961    1.000
    H17      H        0.92211    0.96109    0.75346    1.000
    H18      H        0.03767    0.96210    0.75250    1.000
    X19      C        0.31136    0.62241    0.24792    1.000
    C20      C        0.28984    0.64481    0.24803    1.000
    X21      C        0.31125    0.68872    0.24860    1.000
    C22      C        0.35516    0.71024    0.24902    1.000
    X23      C        0.37768    0.68884    0.24890    1.000
    C24      C        0.35528    0.64493    0.24833    1.000
    H25      H        0.25618    0.62793    0.24772    1.000
    H26      H        0.37195    0.74391    0.24945    1.000
    H27      H        0.37216    0.62814    0.24825    1.000
    X28      C        0.62149    0.31152    0.74884    1.000
    C29      C        0.64398    0.35551    0.74831    1.000
    X30      C        0.68796    0.37800    0.74770    1.000
    C31      C        0.70936    0.35548    0.74712    1.000
    X32      C        0.68781    0.31167    0.74809    1.000
    C33      C        0.64400    0.29011    0.74915    1.000
    H34      H        0.62715    0.37234    0.74842    1.000
    H35      H        0.74299    0.37198    0.74483    1.000
    H36      H        0.62749    0.25647    0.75140    1.000
    X37      C        0.36988    0.30344    0.10053    1.000
    C38      C        0.40891    0.31325    0.11908    1.000
    X39      C        0.43797    0.30523    0.09640    1.000
    C40      C        0.42747    0.28902    0.05245    1.000
    X41      C        0.38908    0.27938    0.03287    1.000
    C42      C        0.36091    0.28650    0.05710    1.000
    H43      H        0.41640    0.32685    0.15179    1.000
    H44      H        0.44769    0.28140    0.03378    1.000
    H45      H        0.33266    0.28066    0.04037    1.000
    X46      C        0.38493    0.10801    0.46656    1.000
    C47      C        0.42332    0.13771    0.44783    1.000
    X48      C        0.43450    0.13285    0.40424    1.000
    C49      C        0.40666    0.09724    0.37954    1.000
    X50      C        0.36783    0.06728    0.39740    1.000
    C51      C        0.35761    0.07313    0.44106    1.000
    H52      H        0.44443    0.16484    0.46717    1.000
    H53      H        0.41457    0.09378    0.34570    1.000
    H54      H        0.32852    0.04992    0.45586    1.000
    X55      C        0.71573    0.10770    0.03219    1.000
    C56      C        0.70690    0.13695    0.05243    1.000
    X57      C        0.69146    0.13179    0.09670    1.000
    C58      C        0.68388    0.09502    0.11959    1.000
    X59      C        0.69258    0.06554    0.10033    1.000
    C60      C        0.70825    0.07225    0.05660    1.000
    H61      H        0.71366    0.16446    0.03370    1.000
    H62      H        0.67077    0.08851    0.15265    1.000
    H63      H        0.71530    0.04993    0.04168    1.000
    X64      C        0.30349    0.37019    0.59969    1.000
    C65      C        0.31229    0.40864    0.61837    1.000
    X66      C        0.30445    0.43714    0.59479    1.000
    C67      C        0.28890    0.42683    0.55080    1.000
    X68      C        0.28020    0.38865    0.53123    1.000
    C69      C        0.28759    0.36081    0.55600    1.000
    H70      H        0.32467    0.41601    0.65182    1.000
    H71      H        0.28195    0.44766    0.53223    1.000
    H72      H        0.28160    0.33190    0.54064    1.000
    X73      C        0.11005    0.72143    0.53408    1.000
    C74      C        0.07469    0.71415    0.55850    1.000
    X75      C        0.06701    0.69753    0.60220    1.000
    C76      C        0.09645    0.68785    0.62059    1.000
    X77      C        0.13311    0.69593    0.59739    1.000
    C78      C        0.13905    0.71223    0.55374    1.000
    H79      H        0.05211    0.71971    0.54174    1.000
    H80      H        0.09184    0.67535    0.65387    1.000
    H81      H        0.16695    0.71923    0.53542    1.000
    X82      C        0.10776    0.38186    0.96313    1.000
    C83      C        0.13806    0.41981    0.94426    1.000
    X84      C        0.13421    0.43047    0.90018    1.000
    C85      C        0.09926    0.40234    0.87482    1.000
    X86      C        0.06778    0.36416    0.89300    1.000
    C87      C        0.07294    0.35458    0.93743    1.000
    H88      H        0.16480    0.44110    0.96397    1.000
    H89      H        0.09626    0.41115    0.84127    1.000
    H90      H        0.05043    0.32518    0.95220    1.000
    X91      C        0.89317    0.27983    0.46558    1.000
    C92      C        0.92896    0.28824    0.44118    1.000
    X93      C        0.93612    0.30461    0.39724    1.000
    C94      C        0.90620    0.31359    0.37879    1.000
    X95      C        0.86977    0.30496    0.40235    1.000
    C96      C        0.86385    0.28837    0.44563    1.000
    H97      H        0.95150    0.28228    0.45725    1.000
    H98      H        0.90934    0.32461    0.34490    1.000
    H99      H        0.83638    0.28265    0.46405    1.000
    X100     C        0.69929    0.63249    0.39801    1.000
    C101     C        0.69035    0.59367    0.38006    1.000
    X102     C        0.69804    0.56574    0.40466    1.000
    C103     C        0.71414    0.57683    0.44825    1.000
    X104     C        0.72292    0.61522    0.46707    1.000
    C105     C        0.71541    0.64262    0.44166    1.000
    H106     H        0.67896    0.58584    0.34622    1.000
    H107     H        0.72009    0.55564    0.46751    1.000
    H108     H        0.72137    0.67172    0.45652    1.000
    X109     C        0.89129    0.61035    0.03285    1.000
    C110     C        0.86196    0.57203    0.05233    1.000
    X111     C        0.86669    0.56159    0.09671    1.000
    C112     C        0.90328    0.59070    0.12003    1.000
    X113     C        0.93285    0.62910    0.10123    1.000
    C114     C        0.92632    0.63837    0.05762    1.000
    H115     H        0.83440    0.55189    0.03323    1.000
    H116     H        0.90964    0.58383    0.15304    1.000
    H117     H        0.94915    0.66734    0.04228    1.000
    X118     C        0.61468    0.89063    0.53573    1.000
    C119     C        0.57690    0.86042    0.55525    1.000
    X120     C        0.56702    0.86435    0.59978    1.000
    C121     C        0.59578    0.89984    0.62428    1.000
    X122     C        0.63371    0.93103    0.60555    1.000
    C123     C        0.64246    0.92560    0.56098    1.000
    H124     H        0.55595    0.83315    0.53607    1.000
    H125     H        0.58734    0.90427    0.65744    1.000
    H126     H        0.67166    0.94796    0.54575    1.000
    X127     C        0.27671    0.89112    0.96600    1.000
    C128     C        0.28396    0.92612    0.94096    1.000
    X129     C        0.30040    0.93310    0.89712    1.000
    C130     C        0.31001    0.90338    0.87928    1.000
    X131     C        0.30222    0.86747    0.90353    1.000
    C132     C        0.28587    0.86196    0.94697    1.000
    H133     H        0.27855    0.94896    0.95733    1.000
    H134     H        0.32110    0.90637    0.84543    1.000
    H135     H        0.28002    0.83473    0.96600    1.000
    X136     C        0.63301    0.69916    0.89827    1.000
    C137     C        0.59364    0.68932    0.88038    1.000
    X138     C        0.56544    0.69791    0.90385    1.000
    C139     C        0.57703    0.71524    0.94711    1.000
    X140     C        0.61523    0.72419    0.96629    1.000
    C141     C        0.64270    0.71629    0.94172    1.000
    H142     H        0.58647    0.67851    0.84641    1.000
    H143     H        0.55596    0.72091    0.96687    1.000
    H144     H        0.67091    0.72171    0.95820    1.000
    Zn145    Zn       0.62252    0.33842    0.27310    1.000
    Zn146    Zn       0.66613    0.33349    0.18965    1.000
    Zn147    Zn       0.71485    0.37760    0.27282    1.000
    Zn148    Zn       0.66189    0.28533    0.27325    1.000
    O149     O        0.66632    0.33368    0.25184    1.000
    O150     O        0.58905    0.33619    0.22889    1.000
    O151     O        0.71044    0.38162    0.16669    1.000
    O152     O        0.70665    0.41227    0.30837    1.000
    O153     O        0.61792    0.32964    0.16708    1.000
    O154     O        0.63853    0.38644    0.30385    1.000
    O155     O        0.74564    0.41091    0.22850    1.000
    O156     O        0.70551    0.29385    0.30782    1.000
    O157     O        0.66965    0.28892    0.16713    1.000
    O158     O        0.74745    0.36199    0.30289    1.000
    O159     O        0.66342    0.25378    0.22909    1.000
    O160     O        0.61415    0.25344    0.30447    1.000
    O161     O        0.58784    0.29535    0.30845    1.000
    X162     C        0.58811    0.33101    0.18695    1.000
    X163     C        0.74148    0.41164    0.18655    1.000
    X164     C        0.67429    0.41457    0.31723    1.000
    X165     C        0.74028    0.32634    0.31607    1.000
    X166     C        0.66817    0.25772    0.18711    1.000
    X167     C        0.58579    0.26085    0.31757    1.000
    Zn168    Zn       0.28557    0.66125    0.77405    1.000
    Zn169    Zn       0.33900    0.62219    0.77301    1.000
    Zn170    Zn       0.33412    0.66664    0.69055    1.000
    Zn171    Zn       0.37793    0.71430    0.77450    1.000
    O172     O        0.33411    0.66611    0.75266    1.000
    O173     O        0.25351    0.61269    0.80417    1.000
    O174     O        0.33583    0.58869    0.72847    1.000
    O175     O        0.29016    0.67138    0.66815    1.000
    O176     O        0.29629    0.58737    0.80851    1.000
    O177     O        0.25446    0.66419    0.72998    1.000
    O178     O        0.32949    0.61836    0.66719    1.000
    O179     O        0.41243    0.74489    0.73063    1.000
    O180     O        0.38744    0.63786    0.80283    1.000
    O181     O        0.38290    0.71048    0.66840    1.000
    O182     O        0.41184    0.70553    0.81089    1.000
    O183     O        0.36197    0.74695    0.80416    1.000
    O184     O        0.29395    0.70425    0.80967    1.000
    X185     C        0.26138    0.58458    0.81717    1.000
    X186     C        0.33033    0.58810    0.68665    1.000
    X187     C        0.25899    0.67000    0.68813    1.000
    X188     C        0.41338    0.74070    0.68869    1.000
    X189     C        0.41486    0.67326    0.81779    1.000
    X190     C        0.32622    0.73927    0.81772    1.000
    Zn191    Zn       0.16075    0.29989    0.20029    1.000
    Zn192    Zn       0.22324    0.36678    0.26029    1.000
    Zn193    Zn       0.14427    0.36627    0.23486    1.000
    Zn194    Zn       0.14108    0.30098    0.29662    1.000
    O195     O        0.16735    0.33353    0.24801    1.000
    O196     O        0.20932    0.30512    0.18295    1.000
    O197     O        0.24057    0.42126    0.25240    1.000
    O198     O        0.12977    0.36251    0.17693    1.000
    O199     O        0.25658    0.35389    0.22667    1.000
    O200     O        0.14083    0.31292    0.15105    1.000
    O201     O        0.18130    0.42107    0.24160    1.000
    O202     O        0.09770    0.30623    0.31360    1.000
    O203     O        0.23480    0.36461    0.31829    1.000
    O204     O        0.09824    0.35381    0.26870    1.000
    O205     O        0.17458    0.31558    0.34560    1.000
    O206     O        0.11849    0.24561    0.28561    1.000
    O207     O        0.12846    0.24482    0.21283    1.000
    X208     C        0.24696    0.32738    0.19532    1.000
    X209     C        0.22064    0.44065    0.24692    1.000
    X210     C        0.13067    0.34069    0.14469    1.000
    X211     C        0.08185    0.32792    0.30067    1.000
    X212     C        0.21251    0.34370    0.35118    1.000
    X213     C        0.11376    0.22569    0.24947    1.000
    Zn214    Zn       0.29948    0.14021    0.79816    1.000
    Zn215    Zn       0.36569    0.22243    0.76200    1.000
    Zn216    Zn       0.36525    0.14354    0.73727    1.000
    Zn217    Zn       0.29904    0.16008    0.70181    1.000
    O218     O        0.33237    0.16656    0.74980    1.000
    O219     O        0.31456    0.17356    0.84735    1.000
    O220     O        0.42017    0.23983    0.75393    1.000
    O221     O        0.35201    0.09699    0.77051    1.000
    O222     O        0.36371    0.23379    0.82008    1.000
    O223     O        0.30395    0.09620    0.81481    1.000
    O224     O        0.42005    0.18043    0.74486    1.000
    O225     O        0.31280    0.14060    0.65268    1.000
    O226     O        0.35283    0.25584    0.72847    1.000
    O227     O        0.36227    0.12970    0.67934    1.000
    O228     O        0.30409    0.20867    0.68464    1.000
    O229     O        0.24382    0.12763    0.71389    1.000
    O230     O        0.24413    0.11830    0.78686    1.000
    X231     C        0.34293    0.21141    0.85298    1.000
    X232     C        0.43961    0.21987    0.74937    1.000
    X233     C        0.32556    0.08023    0.80194    1.000
    X234     C        0.34087    0.13075    0.64678    1.000
    X235     C        0.32629    0.24627    0.69716    1.000
    X236     C        0.22442    0.11336    0.75049    1.000
    Zn237    Zn       0.15952    0.85889    0.29813    1.000
    Zn238    Zn       0.22196    0.85547    0.23721    1.000
    Zn239    Zn       0.14363    0.77671    0.26242    1.000
    Zn240    Zn       0.13946    0.83906    0.20191    1.000
    O241     O        0.16616    0.83250    0.24991    1.000
    O242     O        0.20787    0.90322    0.31434    1.000
    O243     O        0.23990    0.81873    0.24496    1.000
    O244     O        0.13040    0.76552    0.32066    1.000
    O245     O        0.25514    0.90201    0.27033    1.000
    O246     O        0.14148    0.82587    0.34754    1.000
    O247     O        0.18068    0.75926    0.25419    1.000
    O248     O        0.09553    0.79055    0.18523    1.000
    O249     O        0.23290    0.86913    0.17916    1.000
    O250     O        0.09722    0.74339    0.22904    1.000
    O251     O        0.17243    0.85793    0.15260    1.000
    O252     O        0.11757    0.87230    0.21367    1.000
    O253     O        0.12585    0.88043    0.28681    1.000
    X254     C        0.24540    0.91907    0.30139    1.000
    X255     C        0.22008    0.77931    0.24948    1.000
    X256     C        0.13200    0.78805    0.35343    1.000
    X257     C        0.08011    0.75298    0.19787    1.000
    X258     C        0.21033    0.86781    0.14659    1.000
    X259     C        0.11192    0.88619    0.25027    1.000
    Zn260    Zn       0.69978    0.84097    0.29848    1.000
    Zn261    Zn       0.63386    0.77860    0.23753    1.000
    Zn262    Zn       0.63329    0.85682    0.26332    1.000
    Zn263    Zn       0.69982    0.86132    0.20237    1.000
    O264     O        0.66662    0.83442    0.25041    1.000
    O265     O        0.69556    0.79258    0.31482    1.000
    O266     O        0.57914    0.76056    0.24504    1.000
    O267     O        0.63604    0.87066    0.32151    1.000
    O268     O        0.64710    0.74537    0.27075    1.000
    O269     O        0.68538    0.85945    0.34786    1.000
    O270     O        0.57872    0.81951    0.25584    1.000
    O271     O        0.69461    0.90485    0.18553    1.000
    O272     O        0.63681    0.76777    0.17950    1.000
    O273     O        0.64567    0.90279    0.22950    1.000
    O274     O        0.68598    0.82835    0.15305    1.000
    O275     O        0.75505    0.88367    0.21410    1.000
    O276     O        0.75490    0.87438    0.28704    1.000
    X277     C        0.67382    0.75506    0.30188    1.000
    X278     C        0.55945    0.78020    0.25039    1.000
    X279     C        0.65733    0.86926    0.35404    1.000
    X280     C        0.67210    0.91990    0.19810    1.000
    X281     C        0.65809    0.79042    0.14698    1.000
    X282     C        0.77459    0.88885    0.25063    1.000
    Zn283    Zn       0.79617    0.16454    0.70658    1.000
    Zn284    Zn       0.81114    0.11416    0.77300    1.000
    Zn285    Zn       0.88450    0.18705    0.72623    1.000
    Zn286    Zn       0.83404    0.20283    0.79163    1.000
    O287     O        0.83183    0.16674    0.74937    1.000
    O288     O        0.75953    0.11247    0.68935    1.000
    O289     O        0.85083    0.09865    0.77168    1.000
    O290     O        0.88847    0.20596    0.66862    1.000
    O291     O        0.76826    0.07409    0.73989    1.000
    O292     O        0.82309    0.18993    0.65687    1.000
    O293     O        0.89980    0.14738    0.72849    1.000
    O294     O        0.88610    0.23939    0.80905    1.000
    O295     O        0.79155    0.11071    0.83039    1.000
    O296     O        0.92450    0.23016    0.75897    1.000
    O297     O        0.80804    0.17634    0.84130    1.000
    O298     O        0.80927    0.23199    0.77468    1.000
    O299     O        0.76720    0.18976    0.72268    1.000
    X300     C        0.75058    0.07706    0.70477    1.000
    X301     C        0.88515    0.11321    0.75020    1.000
    X302     C        0.86050    0.20589    0.64360    1.000
    X303     C        0.92152    0.24814    0.79380    1.000
    X304     C        0.79157    0.13898    0.85489    1.000
    X305     C        0.77844    0.22076    0.74856    1.000
    Zn306    Zn       0.86089    0.70074    0.70250    1.000
    Zn307    Zn       0.77824    0.63443    0.73773    1.000
    Zn308    Zn       0.85664    0.63362    0.76202    1.000
    Zn309    Zn       0.84074    0.69960    0.79897    1.000
    O310     O        0.83413    0.66708    0.75029    1.000
    O311     O        0.82772    0.68701    0.65329    1.000
    O312     O        0.76021    0.57964    0.74489    1.000
    O313     O        0.90310    0.64693    0.72852    1.000
    O314     O        0.76730    0.63762    0.67987    1.000
    O315     O        0.90471    0.69602    0.68521    1.000
    O316     O        0.81936    0.57913    0.75345    1.000
    O317     O        0.85929    0.68445    0.84776    1.000
    O318     O        0.74501    0.64752    0.77128    1.000
    O319     O        0.87010    0.63527    0.82007    1.000
    O320     O        0.79231    0.69503    0.81600    1.000
    O321     O        0.87401    0.75496    0.78812    1.000
    O322     O        0.88288    0.75588    0.71501    1.000
    X323     C        0.78979    0.65901    0.64733    1.000
    X324     C        0.77993    0.55989    0.74893    1.000
    X325     C        0.92015    0.67373    0.69742    1.000
    X326     C        0.86881    0.65608    0.85311    1.000
    X327     C        0.75474    0.67365    0.80303    1.000
    X328     C        0.88815    0.77505    0.75184    1.000
    C329     C        0.47936    0.31367    0.16489    1.000
    X330     C        0.47581    0.31224    0.11788    1.000
    C331     C        0.51101    0.31726    0.09368    1.000
    C332     C        0.54754    0.32363    0.11548    1.000
    X333     C        0.55043    0.32542    0.16219    1.000
    C334     C        0.51571    0.32036    0.18630    1.000
    H335     H        0.45354    0.30766    0.18627    1.000
    H336     H        0.51141    0.31765    0.05772    1.000
    H337     H        0.57362    0.32742    0.09567    1.000
    H338     H        0.51607    0.32059    0.22236    1.000
    C339     C        0.50061    0.15509    0.36022    1.000
    X340     C        0.47449    0.16572    0.38393    1.000
    C341     C        0.48638    0.20810    0.38722    1.000
    C342     C        0.52276    0.23890    0.36643    1.000
    X343     C        0.54877    0.22831    0.34241    1.000
    C344     C        0.53747    0.18599    0.34011    1.000
    H345     H        0.49251    0.12278    0.35727    1.000
    H346     H        0.46685    0.21738    0.40489    1.000
    H347     H        0.53035    0.27109    0.36885    1.000
    H348     H        0.55653    0.17661    0.32168    1.000
    C349     C        0.67988    0.19309    0.09396    1.000
    X350     C        0.68489    0.16290    0.11817    1.000
    C351     C        0.68392    0.16530    0.16518    1.000
    C352     C        0.67794    0.19542    0.18658    1.000
    X353     C        0.67308    0.22520    0.16242    1.000
    C354     C        0.67422    0.22368    0.11572    1.000
    H355     H        0.67895    0.19283    0.05802    1.000
    H356     H        0.68972    0.14532    0.18652    1.000
    H357     H        0.67807    0.19580    0.22264    1.000
    H358     H        0.67047    0.24599    0.09590    1.000
    C359     C        0.30428    0.47674    0.66333    1.000
    X360     C        0.31084    0.47642    0.61718    1.000
    C361     C        0.32319    0.51373    0.59337    1.000
    C362     C        0.32921    0.55008    0.61525    1.000
    X363     C        0.32363    0.55025    0.66160    1.000
    C364     C        0.31093    0.51293    0.68508    1.000
    H365     H        0.29333    0.44873    0.68299    1.000
    H366     H        0.32886    0.51512    0.55790    1.000
    H367     H        0.33890    0.57818    0.59606    1.000
    H368     H        0.30546    0.51141    0.72064    1.000
    C369     C        0.79448    0.28019    0.38402    1.000
    X370     C        0.83670    0.31131    0.38117    1.000
    C371     C        0.84680    0.34809    0.35782    1.000
    C372     C        0.81551    0.35357    0.33791    1.000
    X373     C        0.77333    0.32208    0.34011    1.000
    C374     C        0.76333    0.28535    0.36351    1.000
    H375     H        0.78559    0.25133    0.40139    1.000
    H376     H        0.87895    0.37276    0.35519    1.000
    H377     H        0.82445    0.38214    0.31991    1.000
    H378     H        0.73131    0.26036    0.36582    1.000
    C379     C        0.65405    0.49985    0.36034    1.000
    X380     C        0.69078    0.52575    0.38420    1.000
    C381     C        0.72115    0.51369    0.38740    1.000
    C382     C        0.71547    0.47736    0.36638    1.000
    X383     C        0.67889    0.45158    0.34220    1.000
    C384     C        0.64800    0.46306    0.33998    1.000
    H385     H        0.62993    0.50808    0.35744    1.000
    H386     H        0.74993    0.53304    0.40518    1.000
    H387     H        0.73997    0.46963    0.36877    1.000
    H388     H        0.61958    0.44416    0.32146    1.000
    C389     C        0.83288    0.52036    0.16491    1.000
    X390     C        0.83551    0.52384    0.11793    1.000
    C391     C        0.80556    0.48865    0.09353    1.000
    C392     C        0.77515    0.45214    0.11515    1.000
    X393     C        0.77359    0.44931    0.16186    1.000
    C394     C        0.80299    0.48406    0.18614    1.000
    H395     H        0.85254    0.54617    0.18637    1.000
    H396     H        0.80594    0.48824    0.05757    1.000
    H397     H        0.75308    0.42603    0.09523    1.000
    H398     H        0.80252    0.48375    0.22220    1.000
    C399     C        0.19113    0.67735    0.59561    1.000
    X400     C        0.16579    0.68904    0.61976    1.000
    C401     C        0.17242    0.69478    0.66604    1.000
    C402     C        0.20219    0.68818    0.68748    1.000
    X403     C        0.22732    0.67638    0.66358    1.000
    C404     C        0.22167    0.67142    0.61717    1.000
    H405     H        0.18708    0.67222    0.56005    1.000
    H406     H        0.15508    0.70517    0.68604    1.000
    H407     H        0.20597    0.69309    0.72313    1.000
    H408     H        0.24040    0.66237    0.59762    1.000
    C409     C        0.20937    0.48390    0.88480    1.000
    X410     C        0.16681    0.47098    0.88055    1.000
    C411     C        0.15576    0.49690    0.85704    1.000
    C412     C        0.18642    0.53451    0.83798    1.000
    X413     C        0.22895    0.54686    0.84120    1.000
    C414     C        0.23995    0.52106    0.86506    1.000
    H415     H        0.21897    0.46463    0.90248    1.000
    H416     H        0.12330    0.48807    0.85349    1.000
    H417     H        0.17673    0.55337    0.81963    1.000
    H418     H        0.27232    0.52943    0.86816    1.000
    C419     C        0.52619    0.82346    0.66730    1.000
    X420     C        0.52718    0.83155    0.62137    1.000
    C421     C        0.48982    0.80825    0.59706    1.000
    C422     C        0.45279    0.77839    0.61826    1.000
    X423     C        0.45196    0.77150    0.66443    1.000
    C424     C        0.48932    0.79441    0.68841    1.000
    H425     H        0.55416    0.83930    0.68728    1.000
    H426     H        0.48890    0.81355    0.56176    1.000
    H427     H        0.42468    0.76127    0.59869    1.000
    H428     H        0.49030    0.78949    0.72384    1.000
    C429     C        0.34615    0.84534    0.85912    1.000
    X430     C        0.30941    0.83469    0.88288    1.000
    C431     C        0.27907    0.79224    0.88633    1.000
    C432     C        0.28485    0.76143    0.86588    1.000
    X433     C        0.32150    0.77201    0.84196    1.000
    C434     C        0.35229    0.81441    0.83929    1.000
    H435     H        0.37026    0.87767    0.85601    1.000
    H436     H        0.25025    0.78289    0.90401    1.000
    H437     H        0.26038    0.72921    0.86858    1.000
    H438     H        0.38076    0.82380    0.82090    1.000
    C439     C        0.50590    0.65861    0.85201    1.000
    X440     C        0.52705    0.69041    0.88404    1.000
    C441     C        0.50901    0.71509    0.89510    1.000
    C442     C        0.47260    0.70922    0.87406    1.000
    X443     C        0.45194    0.67761    0.84229    1.000
    C444     C        0.46872    0.65197    0.83208    1.000
    H445     H        0.51719    0.63774    0.84302    1.000
    H446     H        0.52408    0.74076    0.91825    1.000
    H447     H        0.46071    0.72975    0.88247    1.000
    H448     H        0.45366    0.62738    0.80763    1.000
    C449     C        0.07516    0.96219    0.28286    1.000
    X450     C        0.04520    0.95478    0.24999    1.000
    C451     C        0.03723    0.92450    0.21731    1.000
    C452     C        0.05916    0.90263    0.21710    1.000
    X453     C        0.08880    0.90965    0.25030    1.000
    C454     C        0.09628    0.93953    0.28337    1.000
    H455     H        0.08182    0.98519    0.30855    1.000
    H456     H        0.01440    0.91820    0.19152    1.000
    H457     H        0.05253    0.87979    0.19124    1.000
    H458     H        0.11899    0.94585    0.30930    1.000
    C459     C        0.08472    0.11292    0.22881    1.000
    X460     C        0.04573    0.09014    0.25047    1.000
    C461     C        0.02994    0.11336    0.27198    1.000
    C462     C        0.05243    0.15713    0.27250    1.000
    X463     C        0.09058    0.17929    0.25000    1.000
    C464     C        0.10626    0.15670    0.22782    1.000
    H465     H        0.09801    0.09712    0.21068    1.000
    H466     H        0.00092    0.09791    0.29027    1.000
    H467     H        0.03964    0.17377    0.28998    1.000
    H468     H        0.13558    0.17299    0.21009    1.000
    C469     C        0.88765    0.96410    0.21844    1.000
    X470     C        0.90988    0.95597    0.25108    1.000
    C471     C        0.88725    0.92563    0.28358    1.000
    C472     C        0.84347    0.90434    0.28380    1.000
    X473     C        0.82116    0.91203    0.25080    1.000
    C474     C        0.84386    0.94203    0.21794    1.000
    H475     H        0.90424    0.98718    0.19289    1.000
    H476     H        0.90352    0.91879    0.30920    1.000
    H477     H        0.82701    0.88135    0.30947    1.000
    H478     H        0.82772    0.94883    0.19214    1.000
    C479     C        0.11176    0.08441    0.72806    1.000
    X480     C        0.08868    0.04592    0.75058    1.000
    C481     C        0.11167    0.03045    0.77324    1.000
    C482     C        0.15546    0.05276    0.77401    1.000
    X483     C        0.17794    0.09040    0.75069    1.000
    C484     C        0.15559    0.10575    0.72736    1.000
    H485     H        0.09616    0.09743    0.70911    1.000
    H486     H        0.09602    0.00186    0.79224    1.000
    H487     H        0.17185    0.04020    0.79238    1.000
    H488     H        0.17210    0.13467    0.70896    1.000
    C489     C        0.91346    0.02813    0.76935    1.000
    X490     C        0.95395    0.04548    0.75079    1.000
    C491     C        0.97095    0.08582    0.73198    1.000
    C492     C        0.94871    0.10739    0.73166    1.000
    X493     C        0.90868    0.08993    0.75043    1.000
    C494     C        0.89148    0.04999    0.76934    1.000
    H495     H        0.89884    0.99819    0.78577    1.000
    H496     H        0.00094    0.10063    0.71563    1.000
    H497     H        0.96304    0.13797    0.71647    1.000
    H498     H        0.86084    0.03546    0.78437    1.000
    C499     C        0.96248    0.88858    0.72028    1.000
    X500     C        0.95466    0.91049    0.75359    1.000
    C501     C        0.92475    0.88748    0.78634    1.000
    C502     C        0.90367    0.84365    0.78616    1.000
    X503     C        0.91111    0.82168    0.75250    1.000
    C504     C        0.94062    0.84479    0.71940    1.000
    H505     H        0.98518    0.90543    0.69448    1.000
    H506     H        0.91812    0.90346    0.81245    1.000
    H507     H        0.88104    0.82691    0.81204    1.000
    H508     H        0.94723    0.82897    0.69308    1.000
    C509     C        0.35181    0.33986    0.15918    1.000
    X510     C        0.34005    0.30980    0.12474    1.000
    C511     C        0.29700    0.28570    0.11521    1.000
    C512     C        0.26753    0.29160    0.13817    1.000
    X513     C        0.27944    0.32175    0.17186    1.000
    C514     C        0.32202    0.34575    0.18219    1.000
    H515     H        0.38415    0.36041    0.16755    1.000
    H516     H        0.28515    0.26069    0.09114    1.000
    H517     H        0.23502    0.27198    0.12950    1.000
    H518     H        0.33243    0.36944    0.20780    1.000
    C519     C        0.98890    0.33959    0.33681    1.000
    X520     C        0.97179    0.31059    0.37232    1.000
    C521     C        0.99142    0.28719    0.38222    1.000
    C522     C        0.02653    0.29303    0.35887    1.000
    X523     C        0.04384    0.32236    0.32431    1.000
    C524     C        0.02442    0.34547    0.31338    1.000
    H525     H        0.97618    0.35925    0.32790    1.000
    H526     H        0.97902    0.26272    0.40691    1.000
    H527     H        0.03999    0.27400    0.36797    1.000
    H528     H        0.03688    0.36840    0.28698    1.000
    C529     C        0.29426    0.01561    0.37470    1.000
    X530     C        0.33721    0.03032    0.37065    1.000
    C531     C        0.35004    0.00888    0.34173    1.000
    C532     C        0.32060    0.97316    0.31850    1.000
    X533     C        0.27763    0.95794    0.32379    1.000
    C534     C        0.26505    0.98000    0.35189    1.000
    H535     H        0.28301    0.03173    0.39554    1.000
    H536     H        0.38280    0.01908    0.33788    1.000
    H537     H        0.33144    0.95700    0.29713    1.000
    H538     H        0.23233    0.96973    0.35642    1.000
    C539     C        0.71614    0.01488    0.12237    1.000
    X540     C        0.68700    0.02846    0.12643    1.000
    C541     C        0.65307    0.00643    0.15566    1.000
    C542     C        0.64829    0.97162    0.17960    1.000
    X543     C        0.67717    0.95778    0.17470    1.000
    C544     C        0.71122    0.98011    0.14588    1.000
    H545     H        0.74324    0.03143    0.10124    1.000
    H546     H        0.62972    0.01559    0.15946    1.000
    H547     H        0.62162    0.95514    0.20132    1.000
    H548     H        0.73440    0.97078    0.14147    1.000
    C549     C        0.34329    0.35142    0.65557    1.000
    X550     C        0.30952    0.33906    0.62598    1.000
    C551     C        0.28113    0.29618    0.62148    1.000
    C552     C        0.28667    0.26664    0.64481    1.000
    X553     C        0.32062    0.27880    0.67389    1.000
    C554     C        0.34871    0.32167    0.67930    1.000
    H555     H        0.36605    0.38407    0.65975    1.000
    H556     H        0.25416    0.28526    0.60008    1.000
    H557     H        0.26405    0.23401    0.64004    1.000
    H558     H        0.37524    0.33220    0.70130    1.000
    C559     C        0.28313    0.98849    0.88198    1.000
    X560     C        0.30647    0.96878    0.87213    1.000
    C561     C        0.33579    0.98609    0.83692    1.000
    C562     C        0.34219    0.02203    0.81395    1.000
    X563     C        0.31928    0.04166    0.82499    1.000
    C564     C        0.28947    0.02400    0.85907    1.000
    H565     H        0.25846    0.97593    0.90645    1.000
    H566     H        0.35534    0.97326    0.82800    1.000
    H567     H        0.36543    0.03470    0.78785    1.000
    H568     H        0.27054    0.03756    0.86818    1.000
    C569     C        0.99200    0.64789    0.15631    1.000
    X570     C        0.97015    0.66023    0.12732    1.000
    C571     C        0.98435    0.70307    0.12320    1.000
    C572     C        0.01957    0.73262    0.14636    1.000
    X573     C        0.04175    0.72047    0.17487    1.000
    C574     C        0.02726    0.67763    0.17989    1.000
    H575     H        0.98239    0.61527    0.16012    1.000
    H576     H        0.96800    0.71394    0.10220    1.000
    H577     H        0.02938    0.76524    0.14189    1.000
    H578     H        0.04360    0.66712    0.20141    1.000
    C579     C        0.01334    0.66210    0.66189    1.000
    X580     C        0.03100    0.69141    0.62669    1.000
    C581     C        0.01150    0.71493    0.61664    1.000
    C582     C        0.97615    0.70905    0.63967    1.000
    X583     C        0.95841    0.67949    0.67399    1.000
    C584     C        0.97761    0.65617    0.68493    1.000
    H585     H        0.02572    0.64217    0.67086    1.000
    H586     H        0.02417    0.73947    0.59202    1.000
    H587     H        0.96281    0.72816    0.63051    1.000
    H588     H        0.96482    0.63300    0.71109    1.000
    C589     C        0.99323    0.31024    0.88902    1.000
    X590     C        0.03175    0.33617    0.86775    1.000
    C591     C        0.03299    0.33302    0.82081    1.000
    C592     C        0.99762    0.30426    0.79665    1.000
    X593     C        0.95953    0.27897    0.81834    1.000
    C594     C        0.95779    0.28270    0.86470    1.000
    H595     H        0.98958    0.31216    0.92453    1.000
    H596     H        0.06172    0.35126    0.80261    1.000
    H597     H        0.99998    0.30203    0.76093    1.000
    H598     H        0.92890    0.26372    0.88248    1.000
    C599     C        0.65874    0.65037    0.34236    1.000
    X600     C        0.69298    0.66316    0.37133    1.000
    C601     C        0.72125    0.70610    0.37541    1.000
    C602     C        0.71494    0.73534    0.35256    1.000
    X603     C        0.68035    0.72279    0.32437    1.000
    C604     C        0.65254    0.67984    0.31908    1.000
    H605     H        0.63616    0.61763    0.33848    1.000
    H606     H        0.74859    0.71731    0.39629    1.000
    H607     H        0.73742    0.76805    0.35709    1.000
    H608     H        0.62559    0.66904    0.29766    1.000
    C609     C        0.66562    0.96568    0.67757    1.000
    X610     C        0.66219    0.96699    0.63065    1.000
    C611     C        0.68826    0.00548    0.60939    1.000
    C612     C        0.71600    0.04084    0.63374    1.000
    X613     C        0.71981    0.03905    0.68011    1.000
    C614     C        0.69452    0.00095    0.70174    1.000
    H615     H        0.64740    0.93694    0.69577    1.000
    H616     H        0.68628    0.00917    0.57390    1.000
    H617     H        0.73502    0.06973    0.61598    1.000
    H618     H        0.69682    0.99850    0.73744    1.000
    C619     C        0.70565    0.71638    0.88299    1.000
    X620     C        0.66254    0.69279    0.87349    1.000
    C621     C        0.65041    0.66303    0.83871    1.000
    C622     C        0.67990    0.65662    0.81567    1.000
    X623     C        0.72251    0.67988    0.82627    1.000
    C624     C        0.73477    0.70998    0.86005    1.000
    H625     H        0.71785    0.74133    0.90715    1.000
    H626     H        0.61798    0.64317    0.83015    1.000
    H627     H        0.66924    0.63311    0.78986    1.000
    H628     H        0.76732    0.72915    0.86883    1.000
    C629     C        0.10789    0.33142    0.01976    1.000
    X630     C        0.11231    0.37056    0.00982    1.000
    C631     C        0.12103    0.39886    0.04488    1.000
    C632     C        0.12537    0.38840    0.08870    1.000
    X633     C        0.12193    0.34964    0.09862    1.000
    C634     C        0.11312    0.32127    0.06351    1.000
    H635     H        0.10133    0.30901    0.99343    1.000
    H636     H        0.12430    0.42909    0.03839    1.000
    H637     H        0.13256    0.41124    0.11472    1.000
    H638     H        0.11050    0.29129    0.06982    1.000
    C639     C        0.28125    0.40491    0.44942    1.000
    X640     C        0.26279    0.37709    0.48509    1.000
    C641     C        0.22817    0.33756    0.47616    1.000
    C642     C        0.21204    0.32639    0.43280    1.000
    X643     C        0.23072    0.35410    0.39701    1.000
    C644     C        0.26571    0.39343    0.40593    1.000
    H645     H        0.30810    0.43541    0.45511    1.000
    H646     H        0.21315    0.31547    0.50296    1.000
    H647     H        0.18494    0.29604    0.42729    1.000
    H648     H        0.28063    0.41581    0.37935    1.000
    C649     C        0.40489    0.28027    0.95091    1.000
    X650     C        0.37757    0.26149    0.98689    1.000
    C651     C        0.33822    0.22644    0.97832    1.000
    C652     C        0.32667    0.21036    0.93501    1.000
    X653     C        0.35380    0.22944    0.89888    1.000
    C654     C        0.39304    0.26472    0.90747    1.000
    H655     H        0.43521    0.30747    0.95631    1.000
    H656     H        0.31648    0.21120    0.00536    1.000
    H657     H        0.29643    0.18301    0.92978    1.000
    H658     H        0.41501    0.27995    0.88062    1.000
    C659     C        0.40103    0.12222    0.54834    1.000
    X660     C        0.37315    0.11311    0.51280    1.000
    C661     C        0.33372    0.10837    0.52188    1.000
    C662     C        0.32281    0.11349    0.56531    1.000
    X663     C        0.35071    0.12251    0.60093    1.000
    C664     C        0.38983    0.12645    0.59183    1.000
    H665     H        0.43144    0.12571    0.54251    1.000
    H666     H        0.31160    0.10147    0.49515    1.000
    H667     H        0.29259    0.11050    0.57100    1.000
    H668     H        0.41232    0.13382    0.61828    1.000
    C669     C        0.76422    0.15553    0.97252    1.000
    X670     C        0.73481    0.11507    0.98641    1.000
    C671     C        0.72496    0.08186    0.95662    1.000
    C672     C        0.74380    0.08905    0.91432    1.000
    X673     C        0.77266    0.12969    0.90046    1.000
    C674     C        0.78257    0.16271    0.93030    1.000
    H675     H        0.77371    0.18187    0.99454    1.000
    H676     H        0.70218    0.05025    0.96569    1.000
    H677     H        0.73515    0.06293    0.89217    1.000
    H678     H        0.80493    0.19446    0.92111    1.000
    C679     C        0.27881    0.87655    0.04774    1.000
    X680     C        0.25979    0.88552    0.01232    1.000
    C681     C        0.22494    0.88992    0.02163    1.000
    C682     C        0.20906    0.88472    0.06513    1.000
    X683     C        0.22822    0.87592    0.10064    1.000
    C684     C        0.26350    0.87222    0.09134    1.000
    H685     H        0.30587    0.87333    0.04176    1.000
    H686     H        0.20953    0.89672    0.99501    1.000
    H687     H        0.18175    0.88753    0.07096    1.000
    H688     H        0.27883    0.86502    0.11770    1.000
    C689     C        0.12523    0.72006    0.45223    1.000
    X690     C        0.11617    0.73883    0.48785    1.000
    C691     C        0.11141    0.77351    0.47872    1.000
    C692     C        0.11608    0.78931    0.43523    1.000
    X693     C        0.12471    0.77027    0.39947    1.000
    C694     C        0.12903    0.73530    0.40861    1.000
    H695     H        0.12872    0.69314    0.45805    1.000
    H696     H        0.10453    0.78875    0.50545    1.000
    H697     H        0.11286    0.81641    0.42959    1.000
    H698     H        0.13619    0.72011    0.38207    1.000
    C699     C        0.84514    0.23128    0.52485    1.000
    X700     C        0.88569    0.26078    0.51131    1.000
    C701     C        0.91862    0.27119    0.54164    1.000
    C702     C        0.91102    0.25287    0.58424    1.000
    X703     C        0.87026    0.22405    0.59778    1.000
    C704     C        0.83755    0.21346    0.56733    1.000
    H705     H        0.81903    0.22148    0.50240    1.000
    H706     H        0.95026    0.29412    0.53287    1.000
    H707     H        0.93689    0.26197    0.60689    1.000
    H708     H        0.80574    0.19108    0.57628    1.000
    C709     C        0.72107    0.59901    0.54883    1.000
    X710     C        0.73986    0.62692    0.51331    1.000
    C711     C        0.77459    0.66631    0.52244    1.000
    C712     C        0.79063    0.67716    0.56587    1.000
    X713     C        0.77173    0.64924    0.60146    1.000
    C714     C        0.73651    0.61015    0.59233    1.000
    H715     H        0.69411    0.56862    0.54297    1.000
    H716     H        0.78983    0.68846    0.49573    1.000
    H717     H        0.81789    0.70735    0.57159    1.000
    H718     H        0.72137    0.58764    0.61875    1.000
    C719     C        0.89001    0.66146    0.97812    1.000
    X720     C        0.88539    0.62201    0.98678    1.000
    C721     C        0.87636    0.59444    0.95093    1.000
    C722     C        0.87236    0.60613    0.90751    1.000
    X723     C        0.87647    0.64540    0.89886    1.000
    C724     C        0.88517    0.67284    0.93484    1.000
    H725     H        0.89683    0.68336    0.00507    1.000
    H726     H        0.87294    0.56401    0.95642    1.000
    H727     H        0.86516    0.58396    0.88076    1.000
    H728     H        0.88824    0.70314    0.92955    1.000
    C729     C        0.66569    0.77608    0.02194    1.000
    X730     C        0.62650    0.74114    0.01261    1.000
    C731     C        0.59857    0.72195    0.04804    1.000
    C732     C        0.60951    0.73720    0.09165    1.000
    X733     C        0.64841    0.77259    0.10099    1.000
    C734     C        0.67632    0.79190    0.06547    1.000
    H735     H        0.68787    0.79158    0.99532    1.000
    H736     H        0.56836    0.69479    0.04204    1.000
    H737     H        0.58701    0.72174    0.11801    1.000
    H738     H        0.70639    0.81930    0.07133    1.000
    C739     C        0.66520    0.89052    0.47923    1.000
    X740     C        0.62585    0.88567    0.48906    1.000
    C741     C        0.59764    0.87675    0.45386    1.000
    C742     C        0.60851    0.87293    0.40999    1.000
    X743     C        0.64761    0.87709    0.40019    1.000
    C744     C        0.67577    0.88584    0.43549    1.000
    H745     H        0.68758    0.89722    0.50563    1.000
    H746     H        0.56724    0.87312    0.46025    1.000
    H747     H        0.58580    0.86572    0.38382    1.000
    H748     H        0.70598    0.88896    0.42932    1.000
    C749     C        0.30386    0.55289    0.26958    1.000
    X750     C        0.28802    0.57561    0.24750    1.000
    C751     C        0.24959    0.55306    0.22513    1.000
    C752     C        0.22758    0.50939    0.22529    1.000
    X753     C        0.24377    0.48697    0.24697    1.000
    C754     C        0.28228    0.50925    0.26889    1.000
    H755     H        0.33272    0.56873    0.28810    1.000
    H756     H        0.23659    0.56906    0.20686    1.000
    H757     H        0.19815    0.49312    0.20776    1.000
    H758     H        0.29539    0.49287    0.28630    1.000
    C759     C        0.30383    0.75089    0.22727    1.000
    X760     C        0.28778    0.71206    0.24882    1.000
    C761     C        0.24905    0.69580    0.27062    1.000
    C762     C        0.22695    0.71737    0.27041    1.000
    X763     C        0.24334    0.75625    0.24928    1.000
    C764     C        0.28214    0.77286    0.22792    1.000
    H765     H        0.33296    0.76422    0.20921    1.000
    H766     H        0.23588    0.66660    0.28852    1.000
    H767     H        0.19731    0.70393    0.28754    1.000
    H768     H        0.29541    0.80257    0.21096    1.000
    C769     C        0.44737    0.69668    0.22727    1.000
    X770     C        0.42448    0.71231    0.24938    1.000
    C771     C        0.44686    0.75066    0.27194    1.000
    C772     C        0.49053    0.77280    0.27190    1.000
    X773     C        0.51313    0.75684    0.25017    1.000
    C774     C        0.49103    0.71840    0.22808    1.000
    H775     H        0.43167    0.66787    0.20863    1.000
    H776     H        0.43074    0.76348    0.29028    1.000
    H777     H        0.50665    0.80216    0.28957    1.000
    H778     H        0.50756    0.70547    0.21065    1.000
    C779     C        0.55211    0.24879    0.72805    1.000
    X780     C        0.57466    0.28790    0.74916    1.000
    C781     C        0.55190    0.30411    0.77044    1.000
    C782     C        0.50822    0.28224    0.77012    1.000
    X783     C        0.48596    0.24312    0.74938    1.000
    C784     C        0.50844    0.22655    0.72860    1.000
    H785     H        0.56812    0.23545    0.71042    1.000
    H786     H        0.56770    0.33350    0.78799    1.000
    H787     H        0.49182    0.29569    0.78682    1.000
    H788     H        0.49221    0.19665    0.71196    1.000
    C789     C        0.74723    0.30213    0.77407    1.000
    X790     C        0.71109    0.28839    0.74812    1.000
    C791     C        0.69737    0.25220    0.72225    1.000
    C792     C        0.71924    0.23040    0.72225    1.000
    X793     C        0.75530    0.24406    0.74834    1.000
    C794     C        0.76897    0.28021    0.77428    1.000
    H795     H        0.75841    0.32959    0.79477    1.000
    H796     H        0.66994    0.24100    0.70149    1.000
    H797     H        0.70780    0.20275    0.70181    1.000
    H798     H        0.79655    0.29164    0.79483    1.000
    C799     C        0.75070    0.44716    0.76893    1.000
    X800     C        0.71160    0.42484    0.74778    1.000
    C801     C        0.69542    0.44783    0.72695    1.000
    C802     C        0.71734    0.49152    0.72770    1.000
    X803     C        0.75649    0.51354    0.74844    1.000
    C804     C        0.77299    0.49082    0.76882    1.000
    H805     H        0.76401    0.43098    0.78629    1.000
    H806     H        0.66600    0.43220    0.70942    1.000
    H807     H        0.70394    0.50812    0.71134    1.000
    H808     H        0.80289    0.50685    0.78547    1.000
