# CIF file generated by openbabel 3.1.0, see https://openbabel.org
data_I
_chemical_name_common 'HIDBON_clean'
_cell_length_a 9.3993
_cell_length_b 10.2783
_cell_length_c 17.5516
_cell_angle_alpha 103.055
_cell_angle_beta 90
_cell_angle_gamma 90
_space_group_name_H-M_alt 'P 1'
_space_group_name_Hall 'P 1'
loop_
    _symmetry_equiv_pos_as_xyz
    x,y,z
loop_
    _atom_site_label
    _atom_site_type_symbol
    _atom_site_fract_x
    _atom_site_fract_y
    _atom_site_fract_z
    _atom_site_occupancy
    Cd1      Cd       0.16105    0.22595    0.75020    1.000
    Cd2      Cd       0.66105    0.77405    0.74980    1.000
    Cd3      Cd       0.83895    0.77405    0.24980    1.000
    Cd4      Cd       0.33895    0.22595    0.25020    1.000
    H1       H        0.13430    0.84670    0.63620    1.000
    H2       H        0.12240    0.76180    0.50180    1.000
    H3       H        0.32500    0.74750    0.42600    1.000
    H4       H        0.55350    0.90770    0.61740    1.000
    H5       H        0.54110    0.73870    0.35050    1.000
    H6       H        0.90800    0.87230    0.44110    1.000
    H7       H        0.27960    0.40760    0.01460    1.000
    H8       H        0.59170    0.48860    0.87630    1.000
    H9       H        0.73960    0.89680    0.54370    1.000
    H10      H        0.63430    0.15330    0.86380    1.000
    H11      H        0.62240    0.23820    0.99820    1.000
    H12      H        0.82500    0.25250    0.07400    1.000
    H13      H        0.05350    0.09230    0.88260    1.000
    H14      H        0.04110    0.26130    0.14950    1.000
    H15      H        0.40800    0.12770    0.05890    1.000
    H16      H        0.77960    0.59240    0.48540    1.000
    H17      H        0.09170    0.51140    0.62370    1.000
    H18      H        0.23960    0.10320    0.95630    1.000
    H19      H        0.86570    0.15330    0.36380    1.000
    H20      H        0.87760    0.23820    0.49820    1.000
    H21      H        0.67500    0.25250    0.57400    1.000
    H22      H        0.44650    0.09230    0.38260    1.000
    H23      H        0.45890    0.26130    0.64950    1.000
    H24      H        0.09200    0.12770    0.55890    1.000
    H25      H        0.72040    0.59240    0.98540    1.000
    H26      H        0.40830    0.51140    0.12370    1.000
    H27      H        0.26040    0.10320    0.45630    1.000
    H28      H        0.36570    0.84670    0.13620    1.000
    H29      H        0.37760    0.76180    0.00180    1.000
    H30      H        0.17500    0.74750    0.92600    1.000
    H31      H        0.94650    0.90770    0.11740    1.000
    H32      H        0.95890    0.73870    0.85050    1.000
    H33      H        0.59200    0.87230    0.94110    1.000
    H34      H        0.22040    0.40760    0.51460    1.000
    H35      H        0.90830    0.48860    0.37630    1.000
    H36      H        0.76040    0.89680    0.04370    1.000
    C1       C        0.34510    0.88510    0.64003    1.000
    C2       C        0.21590    0.84180    0.60577    1.000
    C3       C        0.20910    0.79060    0.52516    1.000
    C4       C        0.33070    0.78240    0.47960    1.000
    C5       C        0.46160    0.82600    0.51355    1.000
    C6       C        0.46710    0.87770    0.59398    1.000
    C7       C        0.35620    0.93300    0.72564    1.000
    C8       C        0.58940    0.81810    0.46535    1.000
    C9       C        0.61090    0.77510    0.38661    1.000
    C10      C        0.81260    0.84800    0.43575    1.000
    C11      C        0.36800    0.44470    0.00871    1.000
    C12      C        0.42280    0.43780    0.93414    1.000
    C13      C        0.55470    0.49320    0.92597    1.000
    C14      C        0.33970    0.36810    0.86347    1.000
    C15      C        0.84510    0.11490    0.85997    1.000
    C16      C        0.71590    0.15820    0.89423    1.000
    C17      C        0.70910    0.20940    0.97484    1.000
    C18      C        0.83070    0.21760    0.02040    1.000
    C19      C        0.96160    0.17400    0.98645    1.000
    C20      C        0.96710    0.12230    0.90602    1.000
    C21      C        0.85620    0.06700    0.77436    1.000
    C22      C        0.08940    0.18190    0.03465    1.000
    C23      C        0.11090    0.22490    0.11339    1.000
    C24      C        0.31260    0.15200    0.06425    1.000
    C25      C        0.86800    0.55530    0.49129    1.000
    C26      C        0.92280    0.56220    0.56586    1.000
    C27      C        0.05470    0.50680    0.57403    1.000
    C28      C        0.83970    0.63190    0.63653    1.000
    C29      C        0.65490    0.11490    0.35997    1.000
    C30      C        0.78410    0.15820    0.39423    1.000
    C31      C        0.79090    0.20940    0.47484    1.000
    C32      C        0.66930    0.21760    0.52040    1.000
    C33      C        0.53840    0.17400    0.48645    1.000
    C34      C        0.53290    0.12230    0.40602    1.000
    C35      C        0.64380    0.06700    0.27436    1.000
    C36      C        0.41060    0.18190    0.53465    1.000
    C37      C        0.38910    0.22490    0.61339    1.000
    C38      C        0.18740    0.15200    0.56425    1.000
    C39      C        0.63200    0.55530    0.99129    1.000
    C40      C        0.57720    0.56220    0.06586    1.000
    C41      C        0.44530    0.50680    0.07403    1.000
    C42      C        0.66030    0.63190    0.13653    1.000
    C43      C        0.15490    0.88510    0.14003    1.000
    C44      C        0.28410    0.84180    0.10577    1.000
    C45      C        0.29090    0.79060    0.02516    1.000
    C46      C        0.16930    0.78240    0.97960    1.000
    C47      C        0.03840    0.82600    0.01355    1.000
    C48      C        0.03290    0.87770    0.09398    1.000
    C49      C        0.14380    0.93300    0.22564    1.000
    C50      C        0.91060    0.81810    0.96535    1.000
    C51      C        0.88910    0.77510    0.88661    1.000
    C52      C        0.68740    0.84800    0.93575    1.000
    C53      C        0.13200    0.44470    0.50871    1.000
    C54      C        0.07720    0.43780    0.43414    1.000
    C55      C        0.94530    0.49320    0.42597    1.000
    C56      C        0.16030    0.36810    0.36347    1.000
    N1       N        0.45110    0.88490    0.76934    1.000
    N2       N        0.42130    0.94470    0.84451    1.000
    N3       N        0.31490    0.02430    0.84519    1.000
    N4       N        0.27100    0.02040    0.77079    1.000
    N5       N        0.72040    0.86380    0.49523    1.000
    N6       N        0.75110    0.79350    0.36851    1.000
    N7       N        0.95110    0.11510    0.73066    1.000
    N8       N        0.92130    0.05530    0.65549    1.000
    N9       N        0.81490    0.97570    0.65481    1.000
    N10      N        0.77100    0.97960    0.72921    1.000
    N11      N        0.22040    0.13620    0.00477    1.000
    N12      N        0.25110    0.20650    0.13149    1.000
    N13      N        0.54890    0.11510    0.23066    1.000
    N14      N        0.57870    0.05530    0.15549    1.000
    N15      N        0.68510    0.97570    0.15481    1.000
    N16      N        0.72900    0.97960    0.22921    1.000
    N17      N        0.27960    0.13620    0.50477    1.000
    N18      N        0.24890    0.20650    0.63149    1.000
    N19      N        0.04890    0.88490    0.26934    1.000
    N20      N        0.07870    0.94470    0.34451    1.000
    N21      N        0.18510    0.02430    0.34519    1.000
    N22      N        0.22900    0.02040    0.27079    1.000
    N23      N        0.77960    0.86380    0.99523    1.000
    N24      N        0.74890    0.79350    0.86851    1.000
    O1       O        0.21840    0.32260    0.87395    1.000
    O2       O        0.38990    0.35950    0.79744    1.000
    O3       O        0.71840    0.67740    0.62605    1.000
    O4       O        0.88990    0.64050    0.70256    1.000
    O5       O        0.78160    0.67740    0.12605    1.000
    O6       O        0.61010    0.64050    0.20256    1.000
    O7       O        0.28160    0.32260    0.37395    1.000
    O8       O        0.11010    0.35950    0.29744    1.000
