# CIF file generated by openbabel 3.1.0, see https://openbabel.org
data_I
_chemical_name_common 'image0'
_cell_length_a 13.8665
_cell_length_b 13.8665
_cell_length_c 15.056
_cell_angle_alpha 90
_cell_angle_beta 90
_cell_angle_gamma 120
_space_group_name_H-M_alt 'P 1'
_space_group_name_Hall 'P 1'
loop_
    _symmetry_equiv_pos_as_xyz
    x,y,z
loop_
    _atom_site_label
    _atom_site_type_symbol
    _atom_site_fract_x
    _atom_site_fract_y
    _atom_site_fract_z
    _atom_site_occupancy
    Al1      Al       0.65920    0.10190    0.42860    1.000
    P1       P        0.89130    0.32410    0.44560    1.000
    O1       O        0.79230    0.21240    0.46880    1.000
    O2       O        0.86200    0.41410    0.45600    1.000
    O3       O        0.98220    0.34160    0.50900    1.000
    O4       O        0.93030    0.32310    0.35290    1.000
    Al2      Al       0.32587    0.43523    0.76193    1.000
    P2       P        0.55797    0.65743    0.77893    1.000
    O5       O        0.45897    0.54573    0.80213    1.000
    O6       O        0.52867    0.74743    0.78933    1.000
    O7       O        0.64887    0.67493    0.84233    1.000
    O8       O        0.59697    0.65643    0.68623    1.000
    Al3      Al       0.99253    0.76857    0.09527    1.000
    P3       P        0.22463    0.99077    0.11227    1.000
    O9       O        0.12563    0.87907    0.13547    1.000
    O10      O        0.19533    0.08077    0.12267    1.000
    O11      O        0.31553    0.00827    0.17567    1.000
    O12      O        0.26363    0.98977    0.01957    1.000
    Al4      Al       0.89810    0.55730    0.42860    1.000
    P4       P        0.67590    0.56720    0.44560    1.000
    O13      O        0.78760    0.57990    0.46880    1.000
    O14      O        0.58590    0.44790    0.45600    1.000
    O15      O        0.65840    0.64060    0.50900    1.000
    O16      O        0.67690    0.60720    0.35290    1.000
    Al5      Al       0.56477    0.89063    0.76193    1.000
    P5       P        0.34257    0.90053    0.77893    1.000
    O17      O        0.45427    0.91323    0.80213    1.000
    O18      O        0.25257    0.78123    0.78933    1.000
    O19      O        0.32507    0.97393    0.84233    1.000
    O20      O        0.34357    0.94053    0.68623    1.000
    Al6      Al       0.23143    0.22397    0.09527    1.000
    P6       P        0.00923    0.23387    0.11227    1.000
    O21      O        0.12093    0.24657    0.13547    1.000
    O22      O        0.91923    0.11457    0.12267    1.000
    O23      O        0.99173    0.30727    0.17567    1.000
    O24      O        0.01023    0.27387    0.01957    1.000
    Al7      Al       0.44270    0.34080    0.42860    1.000
    P7       P        0.43280    0.10870    0.44560    1.000
    O25      O        0.42010    0.20770    0.46880    1.000
    O26      O        0.55210    0.13800    0.45600    1.000
    O27      O        0.35940    0.01780    0.50900    1.000
    O28      O        0.39280    0.06970    0.35290    1.000
    Al8      Al       0.10937    0.67413    0.76193    1.000
    P8       P        0.09947    0.44203    0.77893    1.000
    O29      O        0.08677    0.54103    0.80213    1.000
    O30      O        0.21877    0.47133    0.78933    1.000
    O31      O        0.02607    0.35113    0.84233    1.000
    O32      O        0.05947    0.40303    0.68623    1.000
    Al9      Al       0.77603    0.00747    0.09527    1.000
    P9       P        0.76613    0.77537    0.11227    1.000
    O33      O        0.75343    0.87437    0.13547    1.000
    O34      O        0.88543    0.80467    0.12267    1.000
    O35      O        0.69273    0.68447    0.17567    1.000
    O36      O        0.72613    0.73637    0.01957    1.000
    Al10     Al       0.34080    0.89810    0.57140    1.000
    P10      P        0.10870    0.67590    0.55440    1.000
    O37      O        0.20770    0.78760    0.53120    1.000
    O38      O        0.13800    0.58590    0.54400    1.000
    O39      O        0.01780    0.65840    0.49100    1.000
    O40      O        0.06970    0.67690    0.64710    1.000
    Al11     Al       0.00747    0.23143    0.90473    1.000
    P11      P        0.77537    0.00923    0.88773    1.000
    O41      O        0.87437    0.12093    0.86453    1.000
    O42      O        0.80467    0.91923    0.87733    1.000
    O43      O        0.68447    0.99173    0.82433    1.000
    O44      O        0.73637    0.01023    0.98043    1.000
    Al12     Al       0.67413    0.56477    0.23807    1.000
    P12      P        0.44203    0.34257    0.22107    1.000
    O45      O        0.54103    0.45427    0.19787    1.000
    O46      O        0.47133    0.25257    0.21067    1.000
    O47      O        0.35113    0.32507    0.15767    1.000
    O48      O        0.40303    0.34357    0.31377    1.000
    Al13     Al       0.10190    0.44270    0.57140    1.000
    P13      P        0.32410    0.43280    0.55440    1.000
    O49      O        0.21240    0.42010    0.53120    1.000
    O50      O        0.41410    0.55210    0.54400    1.000
    O51      O        0.34160    0.35940    0.49100    1.000
    O52      O        0.32310    0.39280    0.64710    1.000
    Al14     Al       0.76857    0.77603    0.90473    1.000
    P14      P        0.99077    0.76613    0.88773    1.000
    O53      O        0.87907    0.75343    0.86453    1.000
    O54      O        0.08077    0.88543    0.87733    1.000
    O55      O        0.00827    0.69273    0.82433    1.000
    O56      O        0.98977    0.72613    0.98043    1.000
    Al15     Al       0.43523    0.10937    0.23807    1.000
    P15      P        0.65743    0.09947    0.22107    1.000
    O57      O        0.54573    0.08677    0.19787    1.000
    O58      O        0.74743    0.21877    0.21067    1.000
    O59      O        0.67493    0.02607    0.15767    1.000
    O60      O        0.65643    0.05947    0.31377    1.000
    Al16     Al       0.55730    0.65920    0.57140    1.000
    P16      P        0.56720    0.89130    0.55440    1.000
    O61      O        0.57990    0.79230    0.53120    1.000
    O62      O        0.44790    0.86200    0.54400    1.000
    O63      O        0.64060    0.98220    0.49100    1.000
    O64      O        0.60720    0.93030    0.64710    1.000
    Al17     Al       0.22397    0.99253    0.90473    1.000
    P17      P        0.23387    0.22463    0.88773    1.000
    O65      O        0.24657    0.12563    0.86453    1.000
    O66      O        0.11457    0.19533    0.87733    1.000
    O67      O        0.30727    0.31553    0.82433    1.000
    O68      O        0.27387    0.26363    0.98043    1.000
    Al18     Al       0.89063    0.32587    0.23807    1.000
    P18      P        0.90053    0.55797    0.22107    1.000
    O69      O        0.91323    0.45897    0.19787    1.000
    O70      O        0.78123    0.52867    0.21067    1.000
    O71      O        0.97393    0.64887    0.15767    1.000
    O72      O        0.94053    0.59697    0.31377    1.000
