# CIF file generated by openbabel 3.1.0, see https://openbabel.org
data_I
_chemical_name_common 'image0'
_cell_length_a 18.3085
_cell_length_b 9.0788
_cell_length_c 19.6464
_cell_angle_alpha 90
_cell_angle_beta 97.068
_cell_angle_gamma 90
_space_group_name_H-M_alt 'P 1'
_space_group_name_Hall 'P 1'
loop_
    _symmetry_equiv_pos_as_xyz
    x,y,z
loop_
    _atom_site_label
    _atom_site_type_symbol
    _atom_site_fract_x
    _atom_site_fract_y
    _atom_site_fract_z
    _atom_site_occupancy
    O1       O        0.09341    0.59390    0.96614    1.000
    O2       O        0.36748    0.55370    0.99047    1.000
    O3       O        0.40657    0.32990    0.95942    1.000
    C1       C        0.35771    0.42710    0.96656    1.000
    Dy1      Dy       0.97154    0.21224    0.99780    1.000
    O4       O        0.99321    0.95890    0.07480    1.000
    O5       O        0.22500    0.46970    0.95546    1.000
    O6       O        0.97247    0.17640    0.11941    1.000
    C2       C        0.17733    0.26440    0.90267    1.000
    H1       H        0.14390    0.19440    0.88330    1.000
    O7       O        0.03425    0.38100    0.93884    1.000
    C3       C        0.98673    0.04150    0.12590    1.000
    C4       C        0.25443    0.25580    0.90730    1.000
    H2       H        0.28190    0.18070    0.89060    1.000
    C5       C        0.99731    0.83290    0.21319    1.000
    H3       H        0.99550    0.75050    0.18490    1.000
    C6       C        0.09056    0.46210    0.94686    1.000
    C7       C        0.99539    0.97490    0.19277    1.000
    C8       C        0.28106    0.37950    0.94110    1.000
    C9       C        0.16066    0.39400    0.93176    1.000
    O8       O        0.59341    0.09390    0.96614    1.000
    O9       O        0.86748    0.05370    0.99047    1.000
    O10      O        0.90657    0.82990    0.95942    1.000
    C10      C        0.85771    0.92710    0.96656    1.000
    Dy2      Dy       0.47154    0.71224    0.99780    1.000
    O11      O        0.49321    0.45890    0.07480    1.000
    O12      O        0.72500    0.96970    0.95546    1.000
    O13      O        0.47247    0.67640    0.11941    1.000
    C11      C        0.67733    0.76440    0.90267    1.000
    H4       H        0.64390    0.69440    0.88330    1.000
    O14      O        0.53425    0.88100    0.93884    1.000
    C12      C        0.48673    0.54150    0.12590    1.000
    C13      C        0.75443    0.75580    0.90730    1.000
    H5       H        0.78190    0.68070    0.89060    1.000
    C14      C        0.49731    0.33290    0.21319    1.000
    H6       H        0.49550    0.25050    0.18490    1.000
    C15      C        0.59056    0.96210    0.94686    1.000
    C16      C        0.49539    0.47490    0.19277    1.000
    C17      C        0.78106    0.87950    0.94110    1.000
    C18      C        0.66066    0.89400    0.93176    1.000
    O15      O        0.90659    0.59390    0.53386    1.000
    O16      O        0.63252    0.55370    0.50953    1.000
    O17      O        0.59343    0.32990    0.54058    1.000
    C19      C        0.64229    0.42710    0.53344    1.000
    Dy3      Dy       0.02846    0.21224    0.50220    1.000
    O18      O        0.00679    0.95890    0.42520    1.000
    O19      O        0.77500    0.46970    0.54454    1.000
    O20      O        0.02753    0.17640    0.38059    1.000
    C20      C        0.82267    0.26440    0.59733    1.000
    H7       H        0.85610    0.19440    0.61670    1.000
    O21      O        0.96575    0.38100    0.56116    1.000
    C21      C        0.01327    0.04150    0.37410    1.000
    C22      C        0.74557    0.25580    0.59270    1.000
    H8       H        0.71810    0.18070    0.60940    1.000
    C23      C        0.00269    0.83290    0.28681    1.000
    H9       H        0.00450    0.75050    0.31510    1.000
    C24      C        0.90944    0.46210    0.55314    1.000
    C25      C        0.00461    0.97490    0.30723    1.000
    C26      C        0.71894    0.37950    0.55890    1.000
    C27      C        0.83934    0.39400    0.56824    1.000
    O22      O        0.40659    0.09390    0.53386    1.000
    O23      O        0.13252    0.05370    0.50953    1.000
    O24      O        0.09343    0.82990    0.54058    1.000
    C28      C        0.14229    0.92710    0.53344    1.000
    Dy4      Dy       0.52846    0.71224    0.50220    1.000
    O25      O        0.50679    0.45890    0.42520    1.000
    O26      O        0.27500    0.96970    0.54454    1.000
    O27      O        0.52753    0.67640    0.38059    1.000
    C29      C        0.32267    0.76440    0.59733    1.000
    H10      H        0.35610    0.69440    0.61670    1.000
    O28      O        0.46575    0.88100    0.56116    1.000
    C30      C        0.51327    0.54150    0.37410    1.000
    C31      C        0.24557    0.75580    0.59270    1.000
    H11      H        0.21810    0.68070    0.60940    1.000
    C32      C        0.50269    0.33290    0.28681    1.000
    H12      H        0.50450    0.25050    0.31510    1.000
    C33      C        0.40944    0.96210    0.55314    1.000
    C34      C        0.50461    0.47490    0.30723    1.000
    C35      C        0.21894    0.87950    0.55890    1.000
    C36      C        0.33934    0.89400    0.56824    1.000
    O29      O        0.90659    0.40610    0.03386    1.000
    O30      O        0.63252    0.44630    0.00953    1.000
    O31      O        0.59343    0.67010    0.04058    1.000
    C37      C        0.64229    0.57290    0.03344    1.000
    Dy5      Dy       0.02846    0.78776    0.00220    1.000
    O32      O        0.00679    0.04110    0.92520    1.000
    O33      O        0.77500    0.53030    0.04454    1.000
    O34      O        0.02753    0.82360    0.88059    1.000
    C38      C        0.82267    0.73560    0.09733    1.000
    H13      H        0.85610    0.80560    0.11670    1.000
    O35      O        0.96575    0.61900    0.06116    1.000
    C39      C        0.01327    0.95850    0.87410    1.000
    C40      C        0.74557    0.74420    0.09270    1.000
    H14      H        0.71810    0.81930    0.10940    1.000
    C41      C        0.00269    0.16710    0.78681    1.000
    H15      H        0.00450    0.24950    0.81510    1.000
    C42      C        0.90944    0.53790    0.05314    1.000
    C43      C        0.00461    0.02510    0.80723    1.000
    C44      C        0.71894    0.62050    0.05890    1.000
    C45      C        0.83934    0.60600    0.06824    1.000
    O36      O        0.40659    0.90610    0.03386    1.000
    O37      O        0.13252    0.94630    0.00953    1.000
    O38      O        0.09343    0.17010    0.04058    1.000
    C46      C        0.14229    0.07290    0.03344    1.000
    Dy6      Dy       0.52846    0.28776    0.00220    1.000
    O39      O        0.50679    0.54110    0.92520    1.000
    O40      O        0.27500    0.03030    0.04454    1.000
    O41      O        0.52753    0.32360    0.88059    1.000
    C47      C        0.32267    0.23560    0.09733    1.000
    H16      H        0.35610    0.30560    0.11670    1.000
    O42      O        0.46575    0.11900    0.06116    1.000
    C48      C        0.51327    0.45850    0.87410    1.000
    C49      C        0.24557    0.24420    0.09270    1.000
    H17      H        0.21810    0.31930    0.10940    1.000
    C50      C        0.50269    0.66710    0.78681    1.000
    H18      H        0.50450    0.74950    0.81510    1.000
    C51      C        0.40944    0.03790    0.05314    1.000
    C52      C        0.50461    0.52510    0.80723    1.000
    C53      C        0.21894    0.12050    0.05890    1.000
    C54      C        0.33934    0.10600    0.06824    1.000
    O43      O        0.09341    0.40610    0.46614    1.000
    O44      O        0.36748    0.44630    0.49047    1.000
    O45      O        0.40657    0.67010    0.45942    1.000
    C55      C        0.35771    0.57290    0.46656    1.000
    Dy7      Dy       0.97154    0.78776    0.49780    1.000
    O46      O        0.99321    0.04110    0.57480    1.000
    O47      O        0.22500    0.53030    0.45546    1.000
    O48      O        0.97247    0.82360    0.61941    1.000
    C56      C        0.17733    0.73560    0.40267    1.000
    H19      H        0.14390    0.80560    0.38330    1.000
    O49      O        0.03425    0.61900    0.43884    1.000
    C57      C        0.98673    0.95850    0.62590    1.000
    C58      C        0.25443    0.74420    0.40730    1.000
    H20      H        0.28190    0.81930    0.39060    1.000
    C59      C        0.99731    0.16710    0.71319    1.000
    H21      H        0.99550    0.24950    0.68490    1.000
    C60      C        0.09056    0.53790    0.44686    1.000
    C61      C        0.99539    0.02510    0.69277    1.000
    C62      C        0.28106    0.62050    0.44110    1.000
    C63      C        0.16066    0.60600    0.43176    1.000
    O50      O        0.59341    0.90610    0.46614    1.000
    O51      O        0.86748    0.94630    0.49047    1.000
    O52      O        0.90657    0.17010    0.45942    1.000
    C64      C        0.85771    0.07290    0.46656    1.000
    Dy8      Dy       0.47154    0.28776    0.49780    1.000
    O53      O        0.49321    0.54110    0.57480    1.000
    O54      O        0.72500    0.03030    0.45546    1.000
    O55      O        0.47247    0.32360    0.61941    1.000
    C65      C        0.67733    0.23560    0.40267    1.000
    H22      H        0.64390    0.30560    0.38330    1.000
    O56      O        0.53425    0.11900    0.43884    1.000
    C66      C        0.48673    0.45850    0.62590    1.000
    C67      C        0.75443    0.24420    0.40730    1.000
    H23      H        0.78190    0.31930    0.39060    1.000
    C68      C        0.49731    0.66710    0.71319    1.000
    H24      H        0.49550    0.74950    0.68490    1.000
    C69      C        0.59056    0.03790    0.44686    1.000
    C70      C        0.49539    0.52510    0.69277    1.000
    C71      C        0.78106    0.12050    0.44110    1.000
    C72      C        0.66066    0.10600    0.43176    1.000
    O57      O        0.00000    0.06560    0.25000    1.000
    O58      O        0.50000    0.56560    0.25000    1.000
    O59      O        0.00000    0.93440    0.75000    1.000
    O60      O        0.50000    0.43440    0.75000    1.000
