# CIF file generated by openbabel 3.1.0, see https://openbabel.org
data_I
_chemical_name_common 'image0'
_cell_length_a 21.54
_cell_length_b 9.168
_cell_length_c 23.321
_cell_angle_alpha 90
_cell_angle_beta 101.736
_cell_angle_gamma 90
_space_group_name_H-M_alt 'P 1'
_space_group_name_Hall 'P 1'
loop_
    _symmetry_equiv_pos_as_xyz
    x,y,z
loop_
    _atom_site_label
    _atom_site_type_symbol
    _atom_site_fract_x
    _atom_site_fract_y
    _atom_site_fract_z
    _atom_site_occupancy
    Zn1      Zn       0.08478    0.62344    0.50414    1.000
    O1       O        0.22256    0.55590    0.49331    1.000
    O2       O        0.13789    0.67890    0.44897    1.000
    O3       O        0.41960    0.76140    0.42695    1.000
    O4       O        0.41392    0.72560    0.33313    1.000
    O5       O        0.09825    0.58000    0.02091    1.000
    O6       O        0.06600    0.83990    0.01827    1.000
    O7       O        0.99570    0.64800    0.05061    1.000
    P1       P        0.06281    0.69518    0.04798    1.000
    C1       C        0.19356    0.62680    0.45248    1.000
    C2       C        0.22412    0.66280    0.40180    1.000
    C3       C        0.28932    0.68280    0.41168    1.000
    H1       H        0.31370    0.67160    0.44920    1.000
    C4       C        0.31804    0.71940    0.36576    1.000
    C5       C        0.38850    0.73750    0.37544    1.000
    C6       C        0.28110    0.73300    0.30966    1.000
    H2       H        0.30060    0.75800    0.27890    1.000
    C7       C        0.21636    0.71030    0.29835    1.000
    C8       C        0.17733    0.71520    0.23816    1.000
    C9       C        0.18496    0.82210    0.19792    1.000
    H3       H        0.21460    0.89580    0.20910    1.000
    C10      C        0.14910    0.82080    0.14138    1.000
    H4       H        0.15500    0.89370    0.11520    1.000
    C11      C        0.10444    0.71200    0.12318    1.000
    C12      C        0.09639    0.60710    0.16333    1.000
    H5       H        0.06620    0.53430    0.15240    1.000
    C13      C        0.13231    0.60850    0.21939    1.000
    H6       H        0.12620    0.53570    0.24540    1.000
    C14      C        0.18817    0.67610    0.34550    1.000
    H7       H        0.14450    0.66190    0.33910    1.000
    Zn2      Zn       0.58478    0.12344    0.50414    1.000
    O8       O        0.72256    0.05590    0.49331    1.000
    O9       O        0.63789    0.17890    0.44897    1.000
    O10      O        0.91960    0.26140    0.42695    1.000
    O11      O        0.91392    0.22560    0.33313    1.000
    O12      O        0.59825    0.08000    0.02091    1.000
    O13      O        0.56600    0.33990    0.01827    1.000
    O14      O        0.49570    0.14800    0.05061    1.000
    P2       P        0.56281    0.19518    0.04798    1.000
    C15      C        0.69356    0.12680    0.45248    1.000
    C16      C        0.72412    0.16280    0.40180    1.000
    C17      C        0.78932    0.18280    0.41168    1.000
    H8       H        0.81370    0.17160    0.44920    1.000
    C18      C        0.81804    0.21940    0.36576    1.000
    C19      C        0.88850    0.23750    0.37544    1.000
    C20      C        0.78110    0.23300    0.30966    1.000
    H9       H        0.80060    0.25800    0.27890    1.000
    C21      C        0.71636    0.21030    0.29835    1.000
    C22      C        0.67733    0.21520    0.23816    1.000
    C23      C        0.68496    0.32210    0.19792    1.000
    H10      H        0.71460    0.39580    0.20910    1.000
    C24      C        0.64910    0.32080    0.14138    1.000
    H11      H        0.65500    0.39370    0.11520    1.000
    C25      C        0.60444    0.21200    0.12318    1.000
    C26      C        0.59639    0.10710    0.16333    1.000
    H12      H        0.56620    0.03430    0.15240    1.000
    C27      C        0.63231    0.10850    0.21939    1.000
    H13      H        0.62620    0.03570    0.24540    1.000
    C28      C        0.68817    0.17610    0.34550    1.000
    H14      H        0.64450    0.16190    0.33910    1.000
    Zn3      Zn       0.91522    0.62344    0.99586    1.000
    O15      O        0.77744    0.55590    0.00669    1.000
    O16      O        0.86211    0.67890    0.05103    1.000
    O17      O        0.58040    0.76140    0.07305    1.000
    O18      O        0.58608    0.72560    0.16687    1.000
    O19      O        0.90175    0.58000    0.47909    1.000
    O20      O        0.93400    0.83990    0.48173    1.000
    O21      O        0.00430    0.64800    0.44939    1.000
    P3       P        0.93719    0.69518    0.45202    1.000
    C29      C        0.80644    0.62680    0.04752    1.000
    C30      C        0.77588    0.66280    0.09820    1.000
    C31      C        0.71068    0.68280    0.08832    1.000
    H15      H        0.68630    0.67160    0.05080    1.000
    C32      C        0.68196    0.71940    0.13424    1.000
    C33      C        0.61150    0.73750    0.12456    1.000
    C34      C        0.71890    0.73300    0.19034    1.000
    H16      H        0.69940    0.75800    0.22110    1.000
    C35      C        0.78364    0.71030    0.20165    1.000
    C36      C        0.82267    0.71520    0.26184    1.000
    C37      C        0.81504    0.82210    0.30208    1.000
    H17      H        0.78540    0.89580    0.29090    1.000
    C38      C        0.85090    0.82080    0.35862    1.000
    H18      H        0.84500    0.89370    0.38480    1.000
    C39      C        0.89556    0.71200    0.37682    1.000
    C40      C        0.90361    0.60710    0.33667    1.000
    H19      H        0.93380    0.53430    0.34760    1.000
    C41      C        0.86769    0.60850    0.28061    1.000
    H20      H        0.87380    0.53570    0.25460    1.000
    C42      C        0.81183    0.67610    0.15450    1.000
    H21      H        0.85550    0.66190    0.16090    1.000
    Zn4      Zn       0.41522    0.12344    0.99586    1.000
    O22      O        0.27744    0.05590    0.00669    1.000
    O23      O        0.36211    0.17890    0.05103    1.000
    O24      O        0.08040    0.26140    0.07305    1.000
    O25      O        0.08608    0.22560    0.16687    1.000
    O26      O        0.40175    0.08000    0.47909    1.000
    O27      O        0.43400    0.33990    0.48173    1.000
    O28      O        0.50430    0.14800    0.44939    1.000
    P4       P        0.43719    0.19518    0.45202    1.000
    C43      C        0.30644    0.12680    0.04752    1.000
    C44      C        0.27588    0.16280    0.09820    1.000
    C45      C        0.21068    0.18280    0.08832    1.000
    H22      H        0.18630    0.17160    0.05080    1.000
    C46      C        0.18196    0.21940    0.13424    1.000
    C47      C        0.11150    0.23750    0.12456    1.000
    C48      C        0.21890    0.23300    0.19034    1.000
    H23      H        0.19940    0.25800    0.22110    1.000
    C49      C        0.28364    0.21030    0.20165    1.000
    C50      C        0.32267    0.21520    0.26184    1.000
    C51      C        0.31504    0.32210    0.30208    1.000
    H24      H        0.28540    0.39580    0.29090    1.000
    C52      C        0.35090    0.32080    0.35862    1.000
    H25      H        0.34500    0.39370    0.38480    1.000
    C53      C        0.39556    0.21200    0.37682    1.000
    C54      C        0.40361    0.10710    0.33667    1.000
    H26      H        0.43380    0.03430    0.34760    1.000
    C55      C        0.36769    0.10850    0.28061    1.000
    H27      H        0.37380    0.03570    0.25460    1.000
    C56      C        0.31183    0.17610    0.15450    1.000
    H28      H        0.35550    0.16190    0.16090    1.000
    Zn5      Zn       0.91522    0.37656    0.49586    1.000
    O29      O        0.77744    0.44410    0.50669    1.000
    O30      O        0.86211    0.32110    0.55103    1.000
    O31      O        0.58040    0.23860    0.57305    1.000
    O32      O        0.58608    0.27440    0.66687    1.000
    O33      O        0.90175    0.42000    0.97909    1.000
    O34      O        0.93400    0.16010    0.98173    1.000
    O35      O        0.00430    0.35200    0.94939    1.000
    P5       P        0.93719    0.30482    0.95202    1.000
    C57      C        0.80644    0.37320    0.54752    1.000
    C58      C        0.77588    0.33720    0.59820    1.000
    C59      C        0.71068    0.31720    0.58832    1.000
    H29      H        0.68630    0.32840    0.55080    1.000
    C60      C        0.68196    0.28060    0.63424    1.000
    C61      C        0.61150    0.26250    0.62456    1.000
    C62      C        0.71890    0.26700    0.69034    1.000
    H30      H        0.69940    0.24200    0.72110    1.000
    C63      C        0.78364    0.28970    0.70165    1.000
    C64      C        0.82267    0.28480    0.76184    1.000
    C65      C        0.81504    0.17790    0.80208    1.000
    H31      H        0.78540    0.10420    0.79090    1.000
    C66      C        0.85090    0.17920    0.85862    1.000
    H32      H        0.84500    0.10630    0.88480    1.000
    C67      C        0.89556    0.28800    0.87682    1.000
    C68      C        0.90361    0.39290    0.83667    1.000
    H33      H        0.93380    0.46570    0.84760    1.000
    C69      C        0.86769    0.39150    0.78061    1.000
    H34      H        0.87380    0.46430    0.75460    1.000
    C70      C        0.81183    0.32390    0.65450    1.000
    H35      H        0.85550    0.33810    0.66090    1.000
    Zn6      Zn       0.41522    0.87656    0.49586    1.000
    O36      O        0.27744    0.94410    0.50669    1.000
    O37      O        0.36211    0.82110    0.55103    1.000
    O38      O        0.08040    0.73860    0.57305    1.000
    O39      O        0.08608    0.77440    0.66687    1.000
    O40      O        0.40175    0.92000    0.97909    1.000
    O41      O        0.43400    0.66010    0.98173    1.000
    O42      O        0.50430    0.85200    0.94939    1.000
    P6       P        0.43719    0.80482    0.95202    1.000
    C71      C        0.30644    0.87320    0.54752    1.000
    C72      C        0.27588    0.83720    0.59820    1.000
    C73      C        0.21068    0.81720    0.58832    1.000
    H36      H        0.18630    0.82840    0.55080    1.000
    C74      C        0.18196    0.78060    0.63424    1.000
    C75      C        0.11150    0.76250    0.62456    1.000
    C76      C        0.21890    0.76700    0.69034    1.000
    H37      H        0.19940    0.74200    0.72110    1.000
    C77      C        0.28364    0.78970    0.70165    1.000
    C78      C        0.32267    0.78480    0.76184    1.000
    C79      C        0.31504    0.67790    0.80208    1.000
    H38      H        0.28540    0.60420    0.79090    1.000
    C80      C        0.35090    0.67920    0.85862    1.000
    H39      H        0.34500    0.60630    0.88480    1.000
    C81      C        0.39556    0.78800    0.87682    1.000
    C82      C        0.40361    0.89290    0.83667    1.000
    H40      H        0.43380    0.96570    0.84760    1.000
    C83      C        0.36769    0.89150    0.78061    1.000
    H41      H        0.37380    0.96430    0.75460    1.000
    C84      C        0.31183    0.82390    0.65450    1.000
    H42      H        0.35550    0.83810    0.66090    1.000
    Zn7      Zn       0.08478    0.37656    0.00414    1.000
    O43      O        0.22256    0.44410    0.99331    1.000
    O44      O        0.13789    0.32110    0.94897    1.000
    O45      O        0.41960    0.23860    0.92695    1.000
    O46      O        0.41392    0.27440    0.83313    1.000
    O47      O        0.09825    0.42000    0.52091    1.000
    O48      O        0.06600    0.16010    0.51827    1.000
    O49      O        0.99570    0.35200    0.55061    1.000
    P7       P        0.06281    0.30482    0.54798    1.000
    C85      C        0.19356    0.37320    0.95248    1.000
    C86      C        0.22412    0.33720    0.90180    1.000
    C87      C        0.28932    0.31720    0.91168    1.000
    H43      H        0.31370    0.32840    0.94920    1.000
    C88      C        0.31804    0.28060    0.86576    1.000
    C89      C        0.38850    0.26250    0.87544    1.000
    C90      C        0.28110    0.26700    0.80966    1.000
    H44      H        0.30060    0.24200    0.77890    1.000
    C91      C        0.21636    0.28970    0.79835    1.000
    C92      C        0.17733    0.28480    0.73816    1.000
    C93      C        0.18496    0.17790    0.69792    1.000
    H45      H        0.21460    0.10420    0.70910    1.000
    C94      C        0.14910    0.17920    0.64138    1.000
    H46      H        0.15500    0.10630    0.61520    1.000
    C95      C        0.10444    0.28800    0.62318    1.000
    C96      C        0.09639    0.39290    0.66333    1.000
    H47      H        0.06620    0.46570    0.65240    1.000
    C97      C        0.13231    0.39150    0.71939    1.000
    H48      H        0.12620    0.46430    0.74540    1.000
    C98      C        0.18817    0.32390    0.84550    1.000
    H49      H        0.14450    0.33810    0.83910    1.000
    Zn8      Zn       0.58478    0.87656    0.00414    1.000
    O50      O        0.72256    0.94410    0.99331    1.000
    O51      O        0.63789    0.82110    0.94897    1.000
    O52      O        0.91960    0.73860    0.92695    1.000
    O53      O        0.91392    0.77440    0.83313    1.000
    O54      O        0.59825    0.92000    0.52091    1.000
    O55      O        0.56600    0.66010    0.51827    1.000
    O56      O        0.49570    0.85200    0.55061    1.000
    P8       P        0.56281    0.80482    0.54798    1.000
    C99      C        0.69356    0.87320    0.95248    1.000
    C100     C        0.72412    0.83720    0.90180    1.000
    C101     C        0.78932    0.81720    0.91168    1.000
    H50      H        0.81370    0.82840    0.94920    1.000
    C102     C        0.81804    0.78060    0.86576    1.000
    C103     C        0.88850    0.76250    0.87544    1.000
    C104     C        0.78110    0.76700    0.80966    1.000
    H51      H        0.80060    0.74200    0.77890    1.000
    C105     C        0.71636    0.78970    0.79835    1.000
    C106     C        0.67733    0.78480    0.73816    1.000
    C107     C        0.68496    0.67790    0.69792    1.000
    H52      H        0.71460    0.60420    0.70910    1.000
    C108     C        0.64910    0.67920    0.64138    1.000
    H53      H        0.65500    0.60630    0.61520    1.000
    C109     C        0.60444    0.78800    0.62318    1.000
    C110     C        0.59639    0.89290    0.66333    1.000
    H54      H        0.56620    0.96570    0.65240    1.000
    C111     C        0.63231    0.89150    0.71939    1.000
    H55      H        0.62620    0.96430    0.74540    1.000
    C112     C        0.68817    0.82390    0.84550    1.000
    H56      H        0.64450    0.83810    0.83910    1.000
