# CIF file generated by openbabel 3.1.0, see https://openbabel.org
data_I
_chemical_name_common 'image0'
_cell_length_a 16.1925
_cell_length_b 8.6926
_cell_length_c 20.8815
_cell_angle_alpha 90
_cell_angle_beta 94.797
_cell_angle_gamma 90
_space_group_name_H-M_alt 'P 1'
_space_group_name_Hall 'P 1'
loop_
    _symmetry_equiv_pos_as_xyz
    x,y,z
loop_
    _atom_site_label
    _atom_site_type_symbol
    _atom_site_fract_x
    _atom_site_fract_y
    _atom_site_fract_z
    _atom_site_occupancy
    Ho1      Ho       0.24299    0.22276    0.71292    1.000
    O1       O        0.12870    0.35980    0.66300    1.000
    O2       O        0.36720    0.32460    0.74910    1.000
    O3       O        0.17830    0.54150    0.83790    1.000
    O4       O        0.17880    0.30210    0.80030    1.000
    O5       O        0.36190    0.54820    0.79970    1.000
    O6       O        0.21380    0.53690    0.70520    1.000
    N1       N        0.98570    0.93310    0.49910    1.000
    N2       N        0.75500    0.45880    0.84100    1.000
    N3       N        0.78390    0.36050    0.81130    1.000
    C1       C        0.15340    0.49540    0.66630    1.000
    C2       C        0.11200    0.61100    0.62050    1.000
    C3       C        0.14930    0.75180    0.61000    1.000
    H1       H        0.20140    0.77300    0.63020    1.000
    C4       C        0.11020    0.86020    0.57010    1.000
    H2       H        0.13520    0.95480    0.56400    1.000
    C5       C        0.03290    0.82650    0.53910    1.000
    C6       C        0.99700    0.68430    0.54660    1.000
    H3       H        0.94670    0.66050    0.52410    1.000
    C7       C        0.03590    0.57720    0.58780    1.000
    H4       H        0.01110    0.48230    0.59360    1.000
    C8       C        0.40000    0.43410    0.78110    1.000
    C9       C        0.49130    0.42820    0.79840    1.000
    C10      C        0.53060    0.54110    0.83750    1.000
    H5       H        0.49930    0.61850    0.85440    1.000
    C11      C        0.61470    0.53930    0.85110    1.000
    H6       H        0.63980    0.61290    0.87860    1.000
    C12      C        0.66120    0.43190    0.82520    1.000
    C13      C        0.62440    0.31420    0.78740    1.000
    H7       H        0.65690    0.23700    0.77160    1.000
    C14      C        0.53830    0.31270    0.77340    1.000
    H8       H        0.51300    0.23570    0.74770    1.000
    C15      C        0.14290    0.41840    0.82110    1.000
    C16      C        0.05140    0.40780    0.82540    1.000
    C17      C        0.00840    0.51630    0.85850    1.000
    H9       H        0.03680    0.59450    0.88130    1.000
    C18      C        0.92130    0.50670    0.85700    1.000
    H10      H        0.89250    0.57840    0.87950    1.000
    C19      C        0.87900    0.39370    0.82310    1.000
    C20      C        0.92210    0.28490    0.79170    1.000
    H11      H        0.89340    0.20560    0.76970    1.000
    C21      C        0.00720    0.29110    0.79220    1.000
    H12      H        0.03530    0.21710    0.77030    1.000
    Ho2      Ho       0.25701    0.72276    0.78708    1.000
    O7       O        0.37130    0.85980    0.83700    1.000
    O8       O        0.13280    0.82460    0.75090    1.000
    O9       O        0.32170    0.04150    0.66210    1.000
    O10      O        0.32120    0.80210    0.69970    1.000
    O11      O        0.13810    0.04820    0.70030    1.000
    O12      O        0.28620    0.03690    0.79480    1.000
    N4       N        0.51430    0.43310    0.00090    1.000
    N5       N        0.74500    0.95880    0.65900    1.000
    N6       N        0.71610    0.86050    0.68870    1.000
    C22      C        0.34660    0.99540    0.83370    1.000
    C23      C        0.38800    0.11100    0.87950    1.000
    C24      C        0.35070    0.25180    0.89000    1.000
    H13      H        0.29860    0.27300    0.86980    1.000
    C25      C        0.38980    0.36020    0.92990    1.000
    H14      H        0.36480    0.45480    0.93600    1.000
    C26      C        0.46710    0.32650    0.96090    1.000
    C27      C        0.50300    0.18430    0.95340    1.000
    H15      H        0.55330    0.16050    0.97590    1.000
    C28      C        0.46410    0.07720    0.91220    1.000
    H16      H        0.48890    0.98230    0.90640    1.000
    C29      C        0.10000    0.93410    0.71890    1.000
    C30      C        0.00870    0.92820    0.70160    1.000
    C31      C        0.96940    0.04110    0.66250    1.000
    H17      H        0.00070    0.11850    0.64560    1.000
    C32      C        0.88530    0.03930    0.64890    1.000
    H18      H        0.86020    0.11290    0.62140    1.000
    C33      C        0.83880    0.93190    0.67480    1.000
    C34      C        0.87560    0.81420    0.71260    1.000
    H19      H        0.84310    0.73700    0.72840    1.000
    C35      C        0.96170    0.81270    0.72660    1.000
    H20      H        0.98700    0.73570    0.75230    1.000
    C36      C        0.35710    0.91840    0.67890    1.000
    C37      C        0.44860    0.90780    0.67460    1.000
    C38      C        0.49160    0.01630    0.64150    1.000
    H21      H        0.46320    0.09450    0.61870    1.000
    C39      C        0.57870    0.00670    0.64300    1.000
    H22      H        0.60750    0.07840    0.62050    1.000
    C40      C        0.62100    0.89370    0.67690    1.000
    C41      C        0.57790    0.78490    0.70830    1.000
    H23      H        0.60660    0.70560    0.73030    1.000
    C42      C        0.49280    0.79110    0.70780    1.000
    H24      H        0.46470    0.71710    0.72970    1.000
    Ho3      Ho       0.75701    0.77724    0.28708    1.000
    O13      O        0.87130    0.64020    0.33700    1.000
    O14      O        0.63280    0.67540    0.25090    1.000
    O15      O        0.82170    0.45850    0.16210    1.000
    O16      O        0.82120    0.69790    0.19970    1.000
    O17      O        0.63810    0.45180    0.20030    1.000
    O18      O        0.78620    0.46310    0.29480    1.000
    N7       N        0.01430    0.06690    0.50090    1.000
    N8       N        0.24500    0.54120    0.15900    1.000
    N9       N        0.21610    0.63950    0.18870    1.000
    C43      C        0.84660    0.50460    0.33370    1.000
    C44      C        0.88800    0.38900    0.37950    1.000
    C45      C        0.85070    0.24820    0.39000    1.000
    H25      H        0.79860    0.22700    0.36980    1.000
    C46      C        0.88980    0.13980    0.42990    1.000
    H26      H        0.86480    0.04520    0.43600    1.000
    C47      C        0.96710    0.17350    0.46090    1.000
    C48      C        0.00300    0.31570    0.45340    1.000
    H27      H        0.05330    0.33950    0.47590    1.000
    C49      C        0.96410    0.42280    0.41220    1.000
    H28      H        0.98890    0.51770    0.40640    1.000
    C50      C        0.60000    0.56590    0.21890    1.000
    C51      C        0.50870    0.57180    0.20160    1.000
    C52      C        0.46940    0.45890    0.16250    1.000
    H29      H        0.50070    0.38150    0.14560    1.000
    C53      C        0.38530    0.46070    0.14890    1.000
    H30      H        0.36020    0.38710    0.12140    1.000
    C54      C        0.33880    0.56810    0.17480    1.000
    C55      C        0.37560    0.68580    0.21260    1.000
    H31      H        0.34310    0.76300    0.22840    1.000
    C56      C        0.46170    0.68730    0.22660    1.000
    H32      H        0.48700    0.76430    0.25230    1.000
    C57      C        0.85710    0.58160    0.17890    1.000
    C58      C        0.94860    0.59220    0.17460    1.000
    C59      C        0.99160    0.48370    0.14150    1.000
    H33      H        0.96320    0.40550    0.11870    1.000
    C60      C        0.07870    0.49330    0.14300    1.000
    H34      H        0.10750    0.42160    0.12050    1.000
    C61      C        0.12100    0.60630    0.17690    1.000
    C62      C        0.07790    0.71510    0.20830    1.000
    H35      H        0.10660    0.79440    0.23030    1.000
    C63      C        0.99280    0.70890    0.20780    1.000
    H36      H        0.96470    0.78290    0.22970    1.000
    Ho4      Ho       0.74299    0.27724    0.21292    1.000
    O19      O        0.62870    0.14020    0.16300    1.000
    O20      O        0.86720    0.17540    0.24910    1.000
    O21      O        0.67830    0.95850    0.33790    1.000
    O22      O        0.67880    0.19790    0.30030    1.000
    O23      O        0.86190    0.95180    0.29970    1.000
    O24      O        0.71380    0.96310    0.20520    1.000
    N10      N        0.48570    0.56690    0.99910    1.000
    N11      N        0.25500    0.04120    0.34100    1.000
    N12      N        0.28390    0.13950    0.31130    1.000
    C64      C        0.65340    0.00460    0.16630    1.000
    C65      C        0.61200    0.88900    0.12050    1.000
    C66      C        0.64930    0.74820    0.11000    1.000
    H37      H        0.70140    0.72700    0.13020    1.000
    C67      C        0.61020    0.63980    0.07010    1.000
    H38      H        0.63520    0.54520    0.06400    1.000
    C68      C        0.53290    0.67350    0.03910    1.000
    C69      C        0.49700    0.81570    0.04660    1.000
    H39      H        0.44670    0.83950    0.02410    1.000
    C70      C        0.53590    0.92280    0.08780    1.000
    H40      H        0.51110    0.01770    0.09360    1.000
    C71      C        0.90000    0.06590    0.28110    1.000
    C72      C        0.99130    0.07180    0.29840    1.000
    C73      C        0.03060    0.95890    0.33750    1.000
    H41      H        0.99930    0.88150    0.35440    1.000
    C74      C        0.11470    0.96070    0.35110    1.000
    H42      H        0.13980    0.88710    0.37860    1.000
    C75      C        0.16120    0.06810    0.32520    1.000
    C76      C        0.12440    0.18580    0.28740    1.000
    H43      H        0.15690    0.26300    0.27160    1.000
    C77      C        0.03830    0.18730    0.27340    1.000
    H44      H        0.01300    0.26430    0.24770    1.000
    C78      C        0.64290    0.08160    0.32110    1.000
    C79      C        0.55140    0.09220    0.32540    1.000
    C80      C        0.50840    0.98370    0.35850    1.000
    H45      H        0.53680    0.90550    0.38130    1.000
    C81      C        0.42130    0.99330    0.35700    1.000
    H46      H        0.39250    0.92160    0.37950    1.000
    C82      C        0.37900    0.10630    0.32310    1.000
    C83      C        0.42210    0.21510    0.29170    1.000
    H47      H        0.39340    0.29440    0.26970    1.000
    C84      C        0.50720    0.20890    0.29220    1.000
    H48      H        0.53530    0.28290    0.27030    1.000
