# CIF file generated by openbabel 3.1.0, see https://openbabel.org
data_I
_chemical_name_common 'image0'
_cell_length_a 13.804
_cell_length_b 13.804
_cell_length_c 18.435
_cell_angle_alpha 90
_cell_angle_beta 90
_cell_angle_gamma 120
_space_group_name_H-M_alt 'P 1'
_space_group_name_Hall 'P 1'
loop_
    _symmetry_equiv_pos_as_xyz
    x,y,z
loop_
    _atom_site_label
    _atom_site_type_symbol
    _atom_site_fract_x
    _atom_site_fract_y
    _atom_site_fract_z
    _atom_site_occupancy
    O1       O        0.48850    0.35030    0.33460    1.000
    C1       C        0.42860    0.40220    0.46620    1.000
    O2       O        0.34970    0.30520    0.43490    1.000
    O3       O        0.64970    0.13820    0.33460    1.000
    C2       C        0.59780    0.02640    0.46620    1.000
    O4       O        0.69480    0.04450    0.43490    1.000
    O5       O        0.86180    0.51150    0.33460    1.000
    C3       C        0.97360    0.57140    0.46620    1.000
    O6       O        0.95550    0.65030    0.43490    1.000
    O7       O        0.51150    0.64970    0.83460    1.000
    C4       C        0.57140    0.59780    0.96620    1.000
    O8       O        0.65030    0.69480    0.93490    1.000
    O9       O        0.35030    0.86180    0.83460    1.000
    C5       C        0.40220    0.97360    0.96620    1.000
    O10      O        0.30520    0.95550    0.93490    1.000
    O11      O        0.13820    0.48850    0.83460    1.000
    C6       C        0.02640    0.42860    0.96620    1.000
    O12      O        0.04450    0.34970    0.93490    1.000
    O13      O        0.35030    0.48850    0.66540    1.000
    C7       C        0.40220    0.42860    0.53380    1.000
    O14      O        0.30520    0.34970    0.56510    1.000
    O15      O        0.13820    0.64970    0.66540    1.000
    C8       C        0.02640    0.59780    0.53380    1.000
    O16      O        0.04450    0.69480    0.56510    1.000
    O17      O        0.51150    0.86180    0.66540    1.000
    C9       C        0.57140    0.97360    0.53380    1.000
    O18      O        0.65030    0.95550    0.56510    1.000
    O19      O        0.64970    0.51150    0.16540    1.000
    C10      C        0.59780    0.57140    0.03380    1.000
    O20      O        0.69480    0.65030    0.06510    1.000
    O21      O        0.86180    0.35030    0.16540    1.000
    C11      C        0.97360    0.40220    0.03380    1.000
    O22      O        0.95550    0.30520    0.06510    1.000
    O23      O        0.48850    0.13820    0.16540    1.000
    C12      C        0.42860    0.02640    0.03380    1.000
    O24      O        0.34970    0.04450    0.06510    1.000
    O25      O        0.51150    0.64970    0.66540    1.000
    C13      C        0.57140    0.59780    0.53380    1.000
    O26      O        0.65030    0.69480    0.56510    1.000
    O27      O        0.35030    0.86180    0.66540    1.000
    C14      C        0.40220    0.97360    0.53380    1.000
    O28      O        0.30520    0.95550    0.56510    1.000
    O29      O        0.13820    0.48850    0.66540    1.000
    C15      C        0.02640    0.42860    0.53380    1.000
    O30      O        0.04450    0.34970    0.56510    1.000
    O31      O        0.48850    0.35030    0.16540    1.000
    C16      C        0.42860    0.40220    0.03380    1.000
    O32      O        0.34970    0.30520    0.06510    1.000
    O33      O        0.64970    0.13820    0.16540    1.000
    C17      C        0.59780    0.02640    0.03380    1.000
    O34      O        0.69480    0.04450    0.06510    1.000
    O35      O        0.86180    0.51150    0.16540    1.000
    C18      C        0.97360    0.57140    0.03380    1.000
    O36      O        0.95550    0.65030    0.06510    1.000
    O37      O        0.64970    0.51150    0.33460    1.000
    C19      C        0.59780    0.57140    0.46620    1.000
    O38      O        0.69480    0.65030    0.43490    1.000
    O39      O        0.86180    0.35030    0.33460    1.000
    C20      C        0.97360    0.40220    0.46620    1.000
    O40      O        0.95550    0.30520    0.43490    1.000
    O41      O        0.48850    0.13820    0.33460    1.000
    C21      C        0.42860    0.02640    0.46620    1.000
    O42      O        0.34970    0.04450    0.43490    1.000
    O43      O        0.35030    0.48850    0.83460    1.000
    C22      C        0.40220    0.42860    0.96620    1.000
    O44      O        0.30520    0.34970    0.93490    1.000
    O45      O        0.13820    0.64970    0.83460    1.000
    C23      C        0.02640    0.59780    0.96620    1.000
    O46      O        0.04450    0.69480    0.93490    1.000
    O47      O        0.51150    0.86180    0.83460    1.000
    C24      C        0.57140    0.97360    0.96620    1.000
    O48      O        0.65030    0.95550    0.93490    1.000
    In1      In       0.49766    0.24883    0.25000    1.000
    N1       N        0.31760    0.15880    0.25000    1.000
    In2      In       0.75117    0.24883    0.25000    1.000
    N2       N        0.84120    0.15880    0.25000    1.000
    In3      In       0.75117    0.50234    0.25000    1.000
    N3       N        0.84120    0.68240    0.25000    1.000
    In4      In       0.50234    0.75117    0.75000    1.000
    N4       N        0.68240    0.84120    0.75000    1.000
    In5      In       0.24883    0.75117    0.75000    1.000
    N5       N        0.15880    0.84120    0.75000    1.000
    In6      In       0.24883    0.49766    0.75000    1.000
    N6       N        0.15880    0.31760    0.75000    1.000
    O49      O        0.66667    0.33333    0.25000    1.000
    O50      O        0.33333    0.66667    0.75000    1.000
    C25      C        0.55700    0.44300    0.36130    1.000
    C26      C        0.52870    0.47130    0.43400    1.000
    C27      C        0.55700    0.11400    0.36130    1.000
    C28      C        0.52870    0.05740    0.43400    1.000
    C29      C        0.88600    0.44300    0.36130    1.000
    C30      C        0.94260    0.47130    0.43400    1.000
    C31      C        0.44300    0.55700    0.86130    1.000
    C32      C        0.47130    0.52870    0.93400    1.000
    C33      C        0.44300    0.88600    0.86130    1.000
    C34      C        0.47130    0.94260    0.93400    1.000
    C35      C        0.11400    0.55700    0.86130    1.000
    C36      C        0.05740    0.52870    0.93400    1.000
    C37      C        0.44300    0.55700    0.63870    1.000
    C38      C        0.47130    0.52870    0.56600    1.000
    C39      C        0.11400    0.55700    0.63870    1.000
    C40      C        0.05740    0.52870    0.56600    1.000
    C41      C        0.44300    0.88600    0.63870    1.000
    C42      C        0.47130    0.94260    0.56600    1.000
    C43      C        0.55700    0.44300    0.13870    1.000
    C44      C        0.52870    0.47130    0.06600    1.000
    C45      C        0.88600    0.44300    0.13870    1.000
    C46      C        0.94260    0.47130    0.06600    1.000
    C47      C        0.55700    0.11400    0.13870    1.000
    C48      C        0.52870    0.05740    0.06600    1.000
    C49      C        0.25210    0.12605    0.30460    1.000
    N7       N        0.14540    0.07270    0.28740    1.000
    H1       H        0.27750    0.13875    0.35220    1.000
    C50      C        0.87395    0.12605    0.30460    1.000
    N8       N        0.92730    0.07270    0.28740    1.000
    H2       H        0.86125    0.13875    0.35220    1.000
    C51      C        0.87395    0.74790    0.30460    1.000
    N9       N        0.92730    0.85460    0.28740    1.000
    H3       H        0.86125    0.72250    0.35220    1.000
    C52      C        0.74790    0.87395    0.80460    1.000
    N10      N        0.85460    0.92730    0.78740    1.000
    H4       H        0.72250    0.86125    0.85220    1.000
    C53      C        0.12605    0.87395    0.80460    1.000
    N11      N        0.07270    0.92730    0.78740    1.000
    H5       H        0.13875    0.86125    0.85220    1.000
    C54      C        0.12605    0.25210    0.80460    1.000
    N12      N        0.07270    0.14540    0.78740    1.000
    H6       H        0.13875    0.27750    0.85220    1.000
    C55      C        0.12605    0.25210    0.69540    1.000
    N13      N        0.07270    0.14540    0.71260    1.000
    H7       H        0.13875    0.27750    0.64780    1.000
    C56      C        0.12605    0.87395    0.69540    1.000
    N14      N        0.07270    0.92730    0.71260    1.000
    H8       H        0.13875    0.86125    0.64780    1.000
    C57      C        0.74790    0.87395    0.69540    1.000
    N15      N        0.85460    0.92730    0.71260    1.000
    H9       H        0.72250    0.86125    0.64780    1.000
    C58      C        0.87395    0.74790    0.19540    1.000
    N16      N        0.92730    0.85460    0.21260    1.000
    H10      H        0.86125    0.72250    0.14780    1.000
    C59      C        0.87395    0.12605    0.19540    1.000
    N17      N        0.92730    0.07270    0.21260    1.000
    H11      H        0.86125    0.13875    0.14780    1.000
    C60      C        0.25210    0.12605    0.19540    1.000
    N18      N        0.14540    0.07270    0.21260    1.000
    H12      H        0.27750    0.13875    0.14780    1.000
    Co1      Co       0.00000    0.00000    0.35263    1.000
    Co2      Co       0.00000    0.00000    0.85263    1.000
    Co3      Co       0.00000    0.00000    0.64737    1.000
    Co4      Co       0.00000    0.00000    0.14737    1.000
