# CIF file generated by openbabel 3.1.0, see https://openbabel.org
data_I
_chemical_name_common 'image0'
_cell_length_a 47.326
_cell_length_b 47.326
_cell_length_c 47.326
_cell_angle_alpha 90
_cell_angle_beta 90
_cell_angle_gamma 90
_space_group_name_H-M_alt 'P 1'
_space_group_name_Hall 'P 1'
loop_
    _symmetry_equiv_pos_as_xyz
    x,y,z
loop_
    _atom_site_label
    _atom_site_type_symbol
    _atom_site_fract_x
    _atom_site_fract_y
    _atom_site_fract_z
    _atom_site_occupancy
    O1       O        0.21295    0.25402    0.02957    1.000
    F1       F        0.20920    0.24770    0.08820    1.000
    F2       F        0.18420    0.27160    0.13280    1.000
    F3       F        0.18290    0.35880    0.08290    1.000
    F4       F        0.20690    0.33450    0.03760    1.000
    C1       C        0.20360    0.27420    0.08630    1.000
    C2       C        0.19010    0.28680    0.10920    1.000
    C3       C        0.18270    0.31660    0.10810    1.000
    C4       C        0.18890    0.33110    0.08420    1.000
    C5       C        0.20240    0.31850    0.06130    1.000
    O2       O        0.21295    0.75402    0.52957    1.000
    F5       F        0.20920    0.74770    0.58820    1.000
    F6       F        0.18420    0.77160    0.63280    1.000
    F7       F        0.18290    0.85880    0.58290    1.000
    F8       F        0.20690    0.83450    0.53760    1.000
    C6       C        0.20360    0.77420    0.58630    1.000
    C7       C        0.19010    0.78680    0.60920    1.000
    C8       C        0.18270    0.81660    0.60810    1.000
    C9       C        0.18890    0.83110    0.58420    1.000
    C10      C        0.20240    0.81850    0.56130    1.000
    O3       O        0.71295    0.25402    0.52957    1.000
    F9       F        0.70920    0.24770    0.58820    1.000
    F10      F        0.68420    0.27160    0.63280    1.000
    F11      F        0.68290    0.35880    0.58290    1.000
    F12      F        0.70690    0.33450    0.53760    1.000
    C11      C        0.70360    0.27420    0.58630    1.000
    C12      C        0.69010    0.28680    0.60920    1.000
    C13      C        0.68270    0.31660    0.60810    1.000
    C14      C        0.68890    0.33110    0.58420    1.000
    C15      C        0.70240    0.31850    0.56130    1.000
    O4       O        0.71295    0.75402    0.02957    1.000
    F13      F        0.70920    0.74770    0.08820    1.000
    F14      F        0.68420    0.77160    0.13280    1.000
    F15      F        0.68290    0.85880    0.08290    1.000
    F16      F        0.70690    0.83450    0.03760    1.000
    C16      C        0.70360    0.77420    0.08630    1.000
    C17      C        0.69010    0.78680    0.10920    1.000
    C18      C        0.68270    0.81660    0.10810    1.000
    C19      C        0.68890    0.83110    0.08420    1.000
    C20      C        0.70240    0.81850    0.06130    1.000
    O5       O        0.78705    0.74598    0.02957    1.000
    F17      F        0.79080    0.75230    0.08820    1.000
    F18      F        0.81580    0.72840    0.13280    1.000
    F19      F        0.81710    0.64120    0.08290    1.000
    F20      F        0.79310    0.66550    0.03760    1.000
    C21      C        0.79640    0.72580    0.08630    1.000
    C22      C        0.80990    0.71320    0.10920    1.000
    C23      C        0.81730    0.68340    0.10810    1.000
    C24      C        0.81110    0.66890    0.08420    1.000
    C25      C        0.79760    0.68150    0.06130    1.000
    O6       O        0.78705    0.24598    0.52957    1.000
    F21      F        0.79080    0.25230    0.58820    1.000
    F22      F        0.81580    0.22840    0.63280    1.000
    F23      F        0.81710    0.14120    0.58290    1.000
    F24      F        0.79310    0.16550    0.53760    1.000
    C26      C        0.79640    0.22580    0.58630    1.000
    C27      C        0.80990    0.21320    0.60920    1.000
    C28      C        0.81730    0.18340    0.60810    1.000
    C29      C        0.81110    0.16890    0.58420    1.000
    C30      C        0.79760    0.18150    0.56130    1.000
    O7       O        0.28705    0.74598    0.52957    1.000
    F25      F        0.29080    0.75230    0.58820    1.000
    F26      F        0.31580    0.72840    0.63280    1.000
    F27      F        0.31710    0.64120    0.58290    1.000
    F28      F        0.29310    0.66550    0.53760    1.000
    C31      C        0.29640    0.72580    0.58630    1.000
    C32      C        0.30990    0.71320    0.60920    1.000
    C33      C        0.31730    0.68340    0.60810    1.000
    C34      C        0.31110    0.66890    0.58420    1.000
    C35      C        0.29760    0.68150    0.56130    1.000
    O8       O        0.28705    0.24598    0.02957    1.000
    F29      F        0.29080    0.25230    0.08820    1.000
    F30      F        0.31580    0.22840    0.13280    1.000
    F31      F        0.31710    0.14120    0.08290    1.000
    F32      F        0.29310    0.16550    0.03760    1.000
    C36      C        0.29640    0.22580    0.08630    1.000
    C37      C        0.30990    0.21320    0.10920    1.000
    C38      C        0.31730    0.18340    0.10810    1.000
    C39      C        0.31110    0.16890    0.08420    1.000
    C40      C        0.29760    0.18150    0.06130    1.000
    O9       O        0.78705    0.25402    0.97043    1.000
    F33      F        0.79080    0.24770    0.91180    1.000
    F34      F        0.81580    0.27160    0.86720    1.000
    F35      F        0.81710    0.35880    0.91710    1.000
    F36      F        0.79310    0.33450    0.96240    1.000
    C41      C        0.79640    0.27420    0.91370    1.000
    C42      C        0.80990    0.28680    0.89080    1.000
    C43      C        0.81730    0.31660    0.89190    1.000
    C44      C        0.81110    0.33110    0.91580    1.000
    C45      C        0.79760    0.31850    0.93870    1.000
    O10      O        0.78705    0.75402    0.47043    1.000
    F37      F        0.79080    0.74770    0.41180    1.000
    F38      F        0.81580    0.77160    0.36720    1.000
    F39      F        0.81710    0.85880    0.41710    1.000
    F40      F        0.79310    0.83450    0.46240    1.000
    C46      C        0.79640    0.77420    0.41370    1.000
    C47      C        0.80990    0.78680    0.39080    1.000
    C48      C        0.81730    0.81660    0.39190    1.000
    C49      C        0.81110    0.83110    0.41580    1.000
    C50      C        0.79760    0.81850    0.43870    1.000
    O11      O        0.28705    0.25402    0.47043    1.000
    F41      F        0.29080    0.24770    0.41180    1.000
    F42      F        0.31580    0.27160    0.36720    1.000
    F43      F        0.31710    0.35880    0.41710    1.000
    F44      F        0.29310    0.33450    0.46240    1.000
    C51      C        0.29640    0.27420    0.41370    1.000
    C52      C        0.30990    0.28680    0.39080    1.000
    C53      C        0.31730    0.31660    0.39190    1.000
    C54      C        0.31110    0.33110    0.41580    1.000
    C55      C        0.29760    0.31850    0.43870    1.000
    O12      O        0.28705    0.75402    0.97043    1.000
    F45      F        0.29080    0.74770    0.91180    1.000
    F46      F        0.31580    0.77160    0.86720    1.000
    F47      F        0.31710    0.85880    0.91710    1.000
    F48      F        0.29310    0.83450    0.96240    1.000
    C56      C        0.29640    0.77420    0.91370    1.000
    C57      C        0.30990    0.78680    0.89080    1.000
    C58      C        0.31730    0.81660    0.89190    1.000
    C59      C        0.31110    0.83110    0.91580    1.000
    C60      C        0.29760    0.81850    0.93870    1.000
    O13      O        0.21295    0.74598    0.97043    1.000
    F49      F        0.20920    0.75230    0.91180    1.000
    F50      F        0.18420    0.72840    0.86720    1.000
    F51      F        0.18290    0.64120    0.91710    1.000
    F52      F        0.20690    0.66550    0.96240    1.000
    C61      C        0.20360    0.72580    0.91370    1.000
    C62      C        0.19010    0.71320    0.89080    1.000
    C63      C        0.18270    0.68340    0.89190    1.000
    C64      C        0.18890    0.66890    0.91580    1.000
    C65      C        0.20240    0.68150    0.93870    1.000
    O14      O        0.21295    0.24598    0.47043    1.000
    F53      F        0.20920    0.25230    0.41180    1.000
    F54      F        0.18420    0.22840    0.36720    1.000
    F55      F        0.18290    0.14120    0.41710    1.000
    F56      F        0.20690    0.16550    0.46240    1.000
    C66      C        0.20360    0.22580    0.41370    1.000
    C67      C        0.19010    0.21320    0.39080    1.000
    C68      C        0.18270    0.18340    0.39190    1.000
    C69      C        0.18890    0.16890    0.41580    1.000
    C70      C        0.20240    0.18150    0.43870    1.000
    O15      O        0.71295    0.74598    0.47043    1.000
    F57      F        0.70920    0.75230    0.41180    1.000
    F58      F        0.68420    0.72840    0.36720    1.000
    F59      F        0.68290    0.64120    0.41710    1.000
    F60      F        0.70690    0.66550    0.46240    1.000
    C71      C        0.70360    0.72580    0.41370    1.000
    C72      C        0.69010    0.71320    0.39080    1.000
    C73      C        0.68270    0.68340    0.39190    1.000
    C74      C        0.68890    0.66890    0.41580    1.000
    C75      C        0.70240    0.68150    0.43870    1.000
    O16      O        0.71295    0.24598    0.97043    1.000
    F61      F        0.70920    0.25230    0.91180    1.000
    F62      F        0.68420    0.22840    0.86720    1.000
    F63      F        0.68290    0.14120    0.91710    1.000
    F64      F        0.70690    0.16550    0.96240    1.000
    C76      C        0.70360    0.22580    0.91370    1.000
    C77      C        0.69010    0.21320    0.89080    1.000
    C78      C        0.68270    0.18340    0.89190    1.000
    C79      C        0.68890    0.16890    0.91580    1.000
    C80      C        0.70240    0.18150    0.93870    1.000
    O17      O        0.02957    0.21295    0.25402    1.000
    F65      F        0.08820    0.20920    0.24770    1.000
    F66      F        0.13280    0.18420    0.27160    1.000
    F67      F        0.08290    0.18290    0.35880    1.000
    F68      F        0.03760    0.20690    0.33450    1.000
    C81      C        0.08630    0.20360    0.27420    1.000
    C82      C        0.10920    0.19010    0.28680    1.000
    C83      C        0.10810    0.18270    0.31660    1.000
    C84      C        0.08420    0.18890    0.33110    1.000
    C85      C        0.06130    0.20240    0.31850    1.000
    O18      O        0.02957    0.71295    0.75402    1.000
    F69      F        0.08820    0.70920    0.74770    1.000
    F70      F        0.13280    0.68420    0.77160    1.000
    F71      F        0.08290    0.68290    0.85880    1.000
    F72      F        0.03760    0.70690    0.83450    1.000
    C86      C        0.08630    0.70360    0.77420    1.000
    C87      C        0.10920    0.69010    0.78680    1.000
    C88      C        0.10810    0.68270    0.81660    1.000
    C89      C        0.08420    0.68890    0.83110    1.000
    C90      C        0.06130    0.70240    0.81850    1.000
    O19      O        0.52957    0.21295    0.75402    1.000
    F73      F        0.58820    0.20920    0.74770    1.000
    F74      F        0.63280    0.18420    0.77160    1.000
    F75      F        0.58290    0.18290    0.85880    1.000
    F76      F        0.53760    0.20690    0.83450    1.000
    C91      C        0.58630    0.20360    0.77420    1.000
    C92      C        0.60920    0.19010    0.78680    1.000
    C93      C        0.60810    0.18270    0.81660    1.000
    C94      C        0.58420    0.18890    0.83110    1.000
    C95      C        0.56130    0.20240    0.81850    1.000
    O20      O        0.52957    0.71295    0.25402    1.000
    F77      F        0.58820    0.70920    0.24770    1.000
    F78      F        0.63280    0.68420    0.27160    1.000
    F79      F        0.58290    0.68290    0.35880    1.000
    F80      F        0.53760    0.70690    0.33450    1.000
    C96      C        0.58630    0.70360    0.27420    1.000
    C97      C        0.60920    0.69010    0.28680    1.000
    C98      C        0.60810    0.68270    0.31660    1.000
    C99      C        0.58420    0.68890    0.33110    1.000
    C100     C        0.56130    0.70240    0.31850    1.000
    O21      O        0.02957    0.78705    0.74598    1.000
    F81      F        0.08820    0.79080    0.75230    1.000
    F82      F        0.13280    0.81580    0.72840    1.000
    F83      F        0.08290    0.81710    0.64120    1.000
    F84      F        0.03760    0.79310    0.66550    1.000
    C101     C        0.08630    0.79640    0.72580    1.000
    C102     C        0.10920    0.80990    0.71320    1.000
    C103     C        0.10810    0.81730    0.68340    1.000
    C104     C        0.08420    0.81110    0.66890    1.000
    C105     C        0.06130    0.79760    0.68150    1.000
    O22      O        0.02957    0.28705    0.24598    1.000
    F85      F        0.08820    0.29080    0.25230    1.000
    F86      F        0.13280    0.31580    0.22840    1.000
    F87      F        0.08290    0.31710    0.14120    1.000
    F88      F        0.03760    0.29310    0.16550    1.000
    C106     C        0.08630    0.29640    0.22580    1.000
    C107     C        0.10920    0.30990    0.21320    1.000
    C108     C        0.10810    0.31730    0.18340    1.000
    C109     C        0.08420    0.31110    0.16890    1.000
    C110     C        0.06130    0.29760    0.18150    1.000
    O23      O        0.52957    0.78705    0.24598    1.000
    F89      F        0.58820    0.79080    0.25230    1.000
    F90      F        0.63280    0.81580    0.22840    1.000
    F91      F        0.58290    0.81710    0.14120    1.000
    F92      F        0.53760    0.79310    0.16550    1.000
    C111     C        0.58630    0.79640    0.22580    1.000
    C112     C        0.60920    0.80990    0.21320    1.000
    C113     C        0.60810    0.81730    0.18340    1.000
    C114     C        0.58420    0.81110    0.16890    1.000
    C115     C        0.56130    0.79760    0.18150    1.000
    O24      O        0.52957    0.28705    0.74598    1.000
    F93      F        0.58820    0.29080    0.75230    1.000
    F94      F        0.63280    0.31580    0.72840    1.000
    F95      F        0.58290    0.31710    0.64120    1.000
    F96      F        0.53760    0.29310    0.66550    1.000
    C116     C        0.58630    0.29640    0.72580    1.000
    C117     C        0.60920    0.30990    0.71320    1.000
    C118     C        0.60810    0.31730    0.68340    1.000
    C119     C        0.58420    0.31110    0.66890    1.000
    C120     C        0.56130    0.29760    0.68150    1.000
    O25      O        0.97043    0.78705    0.25402    1.000
    F97      F        0.91180    0.79080    0.24770    1.000
    F98      F        0.86720    0.81580    0.27160    1.000
    F99      F        0.91710    0.81710    0.35880    1.000
    F100     F        0.96240    0.79310    0.33450    1.000
    C121     C        0.91370    0.79640    0.27420    1.000
    C122     C        0.89080    0.80990    0.28680    1.000
    C123     C        0.89190    0.81730    0.31660    1.000
    C124     C        0.91580    0.81110    0.33110    1.000
    C125     C        0.93870    0.79760    0.31850    1.000
    O26      O        0.97043    0.28705    0.75402    1.000
    F101     F        0.91180    0.29080    0.74770    1.000
    F102     F        0.86720    0.31580    0.77160    1.000
    F103     F        0.91710    0.31710    0.85880    1.000
    F104     F        0.96240    0.29310    0.83450    1.000
    C126     C        0.91370    0.29640    0.77420    1.000
    C127     C        0.89080    0.30990    0.78680    1.000
    C128     C        0.89190    0.31730    0.81660    1.000
    C129     C        0.91580    0.31110    0.83110    1.000
    C130     C        0.93870    0.29760    0.81850    1.000
    O27      O        0.47043    0.78705    0.75402    1.000
    F105     F        0.41180    0.79080    0.74770    1.000
    F106     F        0.36720    0.81580    0.77160    1.000
    F107     F        0.41710    0.81710    0.85880    1.000
    F108     F        0.46240    0.79310    0.83450    1.000
    C131     C        0.41370    0.79640    0.77420    1.000
    C132     C        0.39080    0.80990    0.78680    1.000
    C133     C        0.39190    0.81730    0.81660    1.000
    C134     C        0.41580    0.81110    0.83110    1.000
    C135     C        0.43870    0.79760    0.81850    1.000
    O28      O        0.47043    0.28705    0.25402    1.000
    F109     F        0.41180    0.29080    0.24770    1.000
    F110     F        0.36720    0.31580    0.27160    1.000
    F111     F        0.41710    0.31710    0.35880    1.000
    F112     F        0.46240    0.29310    0.33450    1.000
    C136     C        0.41370    0.29640    0.27420    1.000
    C137     C        0.39080    0.30990    0.28680    1.000
    C138     C        0.39190    0.31730    0.31660    1.000
    C139     C        0.41580    0.31110    0.33110    1.000
    C140     C        0.43870    0.29760    0.31850    1.000
    O29      O        0.97043    0.21295    0.74598    1.000
    F113     F        0.91180    0.20920    0.75230    1.000
    F114     F        0.86720    0.18420    0.72840    1.000
    F115     F        0.91710    0.18290    0.64120    1.000
    F116     F        0.96240    0.20690    0.66550    1.000
    C141     C        0.91370    0.20360    0.72580    1.000
    C142     C        0.89080    0.19010    0.71320    1.000
    C143     C        0.89190    0.18270    0.68340    1.000
    C144     C        0.91580    0.18890    0.66890    1.000
    C145     C        0.93870    0.20240    0.68150    1.000
    O30      O        0.97043    0.71295    0.24598    1.000
    F117     F        0.91180    0.70920    0.25230    1.000
    F118     F        0.86720    0.68420    0.22840    1.000
    F119     F        0.91710    0.68290    0.14120    1.000
    F120     F        0.96240    0.70690    0.16550    1.000
    C146     C        0.91370    0.70360    0.22580    1.000
    C147     C        0.89080    0.69010    0.21320    1.000
    C148     C        0.89190    0.68270    0.18340    1.000
    C149     C        0.91580    0.68890    0.16890    1.000
    C150     C        0.93870    0.70240    0.18150    1.000
    O31      O        0.47043    0.21295    0.24598    1.000
    F121     F        0.41180    0.20920    0.25230    1.000
    F122     F        0.36720    0.18420    0.22840    1.000
    F123     F        0.41710    0.18290    0.14120    1.000
    F124     F        0.46240    0.20690    0.16550    1.000
    C151     C        0.41370    0.20360    0.22580    1.000
    C152     C        0.39080    0.19010    0.21320    1.000
    C153     C        0.39190    0.18270    0.18340    1.000
    C154     C        0.41580    0.18890    0.16890    1.000
    C155     C        0.43870    0.20240    0.18150    1.000
    O32      O        0.47043    0.71295    0.74598    1.000
    F125     F        0.41180    0.70920    0.75230    1.000
    F126     F        0.36720    0.68420    0.72840    1.000
    F127     F        0.41710    0.68290    0.64120    1.000
    F128     F        0.46240    0.70690    0.66550    1.000
    C156     C        0.41370    0.70360    0.72580    1.000
    C157     C        0.39080    0.69010    0.71320    1.000
    C158     C        0.39190    0.68270    0.68340    1.000
    C159     C        0.41580    0.68890    0.66890    1.000
    C160     C        0.43870    0.70240    0.68150    1.000
    O33      O        0.25402    0.02957    0.21295    1.000
    F129     F        0.24770    0.08820    0.20920    1.000
    F130     F        0.27160    0.13280    0.18420    1.000
    F131     F        0.35880    0.08290    0.18290    1.000
    F132     F        0.33450    0.03760    0.20690    1.000
    C161     C        0.27420    0.08630    0.20360    1.000
    C162     C        0.28680    0.10920    0.19010    1.000
    C163     C        0.31660    0.10810    0.18270    1.000
    C164     C        0.33110    0.08420    0.18890    1.000
    C165     C        0.31850    0.06130    0.20240    1.000
    O34      O        0.25402    0.52957    0.71295    1.000
    F133     F        0.24770    0.58820    0.70920    1.000
    F134     F        0.27160    0.63280    0.68420    1.000
    F135     F        0.35880    0.58290    0.68290    1.000
    F136     F        0.33450    0.53760    0.70690    1.000
    C166     C        0.27420    0.58630    0.70360    1.000
    C167     C        0.28680    0.60920    0.69010    1.000
    C168     C        0.31660    0.60810    0.68270    1.000
    C169     C        0.33110    0.58420    0.68890    1.000
    C170     C        0.31850    0.56130    0.70240    1.000
    O35      O        0.75402    0.02957    0.71295    1.000
    F137     F        0.74770    0.08820    0.70920    1.000
    F138     F        0.77160    0.13280    0.68420    1.000
    F139     F        0.85880    0.08290    0.68290    1.000
    F140     F        0.83450    0.03760    0.70690    1.000
    C171     C        0.77420    0.08630    0.70360    1.000
    C172     C        0.78680    0.10920    0.69010    1.000
    C173     C        0.81660    0.10810    0.68270    1.000
    C174     C        0.83110    0.08420    0.68890    1.000
    C175     C        0.81850    0.06130    0.70240    1.000
    O36      O        0.75402    0.52957    0.21295    1.000
    F141     F        0.74770    0.58820    0.20920    1.000
    F142     F        0.77160    0.63280    0.18420    1.000
    F143     F        0.85880    0.58290    0.18290    1.000
    F144     F        0.83450    0.53760    0.20690    1.000
    C176     C        0.77420    0.58630    0.20360    1.000
    C177     C        0.78680    0.60920    0.19010    1.000
    C178     C        0.81660    0.60810    0.18270    1.000
    C179     C        0.83110    0.58420    0.18890    1.000
    C180     C        0.81850    0.56130    0.20240    1.000
    O37      O        0.74598    0.02957    0.78705    1.000
    F145     F        0.75230    0.08820    0.79080    1.000
    F146     F        0.72840    0.13280    0.81580    1.000
    F147     F        0.64120    0.08290    0.81710    1.000
    F148     F        0.66550    0.03760    0.79310    1.000
    C181     C        0.72580    0.08630    0.79640    1.000
    C182     C        0.71320    0.10920    0.80990    1.000
    C183     C        0.68340    0.10810    0.81730    1.000
    C184     C        0.66890    0.08420    0.81110    1.000
    C185     C        0.68150    0.06130    0.79760    1.000
    O38      O        0.74598    0.52957    0.28705    1.000
    F149     F        0.75230    0.58820    0.29080    1.000
    F150     F        0.72840    0.63280    0.31580    1.000
    F151     F        0.64120    0.58290    0.31710    1.000
    F152     F        0.66550    0.53760    0.29310    1.000
    C186     C        0.72580    0.58630    0.29640    1.000
    C187     C        0.71320    0.60920    0.30990    1.000
    C188     C        0.68340    0.60810    0.31730    1.000
    C189     C        0.66890    0.58420    0.31110    1.000
    C190     C        0.68150    0.56130    0.29760    1.000
    O39      O        0.24598    0.02957    0.28705    1.000
    F153     F        0.25230    0.08820    0.29080    1.000
    F154     F        0.22840    0.13280    0.31580    1.000
    F155     F        0.14120    0.08290    0.31710    1.000
    F156     F        0.16550    0.03760    0.29310    1.000
    C191     C        0.22580    0.08630    0.29640    1.000
    C192     C        0.21320    0.10920    0.30990    1.000
    C193     C        0.18340    0.10810    0.31730    1.000
    C194     C        0.16890    0.08420    0.31110    1.000
    C195     C        0.18150    0.06130    0.29760    1.000
    O40      O        0.24598    0.52957    0.78705    1.000
    F157     F        0.25230    0.58820    0.79080    1.000
    F158     F        0.22840    0.63280    0.81580    1.000
    F159     F        0.14120    0.58290    0.81710    1.000
    F160     F        0.16550    0.53760    0.79310    1.000
    C196     C        0.22580    0.58630    0.79640    1.000
    C197     C        0.21320    0.60920    0.80990    1.000
    C198     C        0.18340    0.60810    0.81730    1.000
    C199     C        0.16890    0.58420    0.81110    1.000
    C200     C        0.18150    0.56130    0.79760    1.000
    O41      O        0.25402    0.97043    0.78705    1.000
    F161     F        0.24770    0.91180    0.79080    1.000
    F162     F        0.27160    0.86720    0.81580    1.000
    F163     F        0.35880    0.91710    0.81710    1.000
    F164     F        0.33450    0.96240    0.79310    1.000
    C201     C        0.27420    0.91370    0.79640    1.000
    C202     C        0.28680    0.89080    0.80990    1.000
    C203     C        0.31660    0.89190    0.81730    1.000
    C204     C        0.33110    0.91580    0.81110    1.000
    C205     C        0.31850    0.93870    0.79760    1.000
    O42      O        0.25402    0.47043    0.28705    1.000
    F165     F        0.24770    0.41180    0.29080    1.000
    F166     F        0.27160    0.36720    0.31580    1.000
    F167     F        0.35880    0.41710    0.31710    1.000
    F168     F        0.33450    0.46240    0.29310    1.000
    C206     C        0.27420    0.41370    0.29640    1.000
    C207     C        0.28680    0.39080    0.30990    1.000
    C208     C        0.31660    0.39190    0.31730    1.000
    C209     C        0.33110    0.41580    0.31110    1.000
    C210     C        0.31850    0.43870    0.29760    1.000
    O43      O        0.75402    0.97043    0.28705    1.000
    F169     F        0.74770    0.91180    0.29080    1.000
    F170     F        0.77160    0.86720    0.31580    1.000
    F171     F        0.85880    0.91710    0.31710    1.000
    F172     F        0.83450    0.96240    0.29310    1.000
    C211     C        0.77420    0.91370    0.29640    1.000
    C212     C        0.78680    0.89080    0.30990    1.000
    C213     C        0.81660    0.89190    0.31730    1.000
    C214     C        0.83110    0.91580    0.31110    1.000
    C215     C        0.81850    0.93870    0.29760    1.000
    O44      O        0.75402    0.47043    0.78705    1.000
    F173     F        0.74770    0.41180    0.79080    1.000
    F174     F        0.77160    0.36720    0.81580    1.000
    F175     F        0.85880    0.41710    0.81710    1.000
    F176     F        0.83450    0.46240    0.79310    1.000
    C216     C        0.77420    0.41370    0.79640    1.000
    C217     C        0.78680    0.39080    0.80990    1.000
    C218     C        0.81660    0.39190    0.81730    1.000
    C219     C        0.83110    0.41580    0.81110    1.000
    C220     C        0.81850    0.43870    0.79760    1.000
    O45      O        0.74598    0.97043    0.21295    1.000
    F177     F        0.75230    0.91180    0.20920    1.000
    F178     F        0.72840    0.86720    0.18420    1.000
    F179     F        0.64120    0.91710    0.18290    1.000
    F180     F        0.66550    0.96240    0.20690    1.000
    C221     C        0.72580    0.91370    0.20360    1.000
    C222     C        0.71320    0.89080    0.19010    1.000
    C223     C        0.68340    0.89190    0.18270    1.000
    C224     C        0.66890    0.91580    0.18890    1.000
    C225     C        0.68150    0.93870    0.20240    1.000
    O46      O        0.74598    0.47043    0.71295    1.000
    F181     F        0.75230    0.41180    0.70920    1.000
    F182     F        0.72840    0.36720    0.68420    1.000
    F183     F        0.64120    0.41710    0.68290    1.000
    F184     F        0.66550    0.46240    0.70690    1.000
    C226     C        0.72580    0.41370    0.70360    1.000
    C227     C        0.71320    0.39080    0.69010    1.000
    C228     C        0.68340    0.39190    0.68270    1.000
    C229     C        0.66890    0.41580    0.68890    1.000
    C230     C        0.68150    0.43870    0.70240    1.000
    O47      O        0.24598    0.97043    0.71295    1.000
    F185     F        0.25230    0.91180    0.70920    1.000
    F186     F        0.22840    0.86720    0.68420    1.000
    F187     F        0.14120    0.91710    0.68290    1.000
    F188     F        0.16550    0.96240    0.70690    1.000
    C231     C        0.22580    0.91370    0.70360    1.000
    C232     C        0.21320    0.89080    0.69010    1.000
    C233     C        0.18340    0.89190    0.68270    1.000
    C234     C        0.16890    0.91580    0.68890    1.000
    C235     C        0.18150    0.93870    0.70240    1.000
    O48      O        0.24598    0.47043    0.21295    1.000
    F189     F        0.25230    0.41180    0.20920    1.000
    F190     F        0.22840    0.36720    0.18420    1.000
    F191     F        0.14120    0.41710    0.18290    1.000
    F192     F        0.16550    0.46240    0.20690    1.000
    C236     C        0.22580    0.41370    0.20360    1.000
    C237     C        0.21320    0.39080    0.19010    1.000
    C238     C        0.18340    0.39190    0.18270    1.000
    C239     C        0.16890    0.41580    0.18890    1.000
    C240     C        0.18150    0.43870    0.20240    1.000
    O49      O        0.25402    0.21295    0.97043    1.000
    F193     F        0.24770    0.20920    0.91180    1.000
    F194     F        0.27160    0.18420    0.86720    1.000
    F195     F        0.35880    0.18290    0.91710    1.000
    F196     F        0.33450    0.20690    0.96240    1.000
    C241     C        0.27420    0.20360    0.91370    1.000
    C242     C        0.28680    0.19010    0.89080    1.000
    C243     C        0.31660    0.18270    0.89190    1.000
    C244     C        0.33110    0.18890    0.91580    1.000
    C245     C        0.31850    0.20240    0.93870    1.000
    O50      O        0.25402    0.71295    0.47043    1.000
    F197     F        0.24770    0.70920    0.41180    1.000
    F198     F        0.27160    0.68420    0.36720    1.000
    F199     F        0.35880    0.68290    0.41710    1.000
    F200     F        0.33450    0.70690    0.46240    1.000
    C246     C        0.27420    0.70360    0.41370    1.000
    C247     C        0.28680    0.69010    0.39080    1.000
    C248     C        0.31660    0.68270    0.39190    1.000
    C249     C        0.33110    0.68890    0.41580    1.000
    C250     C        0.31850    0.70240    0.43870    1.000
    O51      O        0.75402    0.21295    0.47043    1.000
    F201     F        0.74770    0.20920    0.41180    1.000
    F202     F        0.77160    0.18420    0.36720    1.000
    F203     F        0.85880    0.18290    0.41710    1.000
    F204     F        0.83450    0.20690    0.46240    1.000
    C251     C        0.77420    0.20360    0.41370    1.000
    C252     C        0.78680    0.19010    0.39080    1.000
    C253     C        0.81660    0.18270    0.39190    1.000
    C254     C        0.83110    0.18890    0.41580    1.000
    C255     C        0.81850    0.20240    0.43870    1.000
    O52      O        0.75402    0.71295    0.97043    1.000
    F205     F        0.74770    0.70920    0.91180    1.000
    F206     F        0.77160    0.68420    0.86720    1.000
    F207     F        0.85880    0.68290    0.91710    1.000
    F208     F        0.83450    0.70690    0.96240    1.000
    C256     C        0.77420    0.70360    0.91370    1.000
    C257     C        0.78680    0.69010    0.89080    1.000
    C258     C        0.81660    0.68270    0.89190    1.000
    C259     C        0.83110    0.68890    0.91580    1.000
    C260     C        0.81850    0.70240    0.93870    1.000
    O53      O        0.74598    0.78705    0.97043    1.000
    F209     F        0.75230    0.79080    0.91180    1.000
    F210     F        0.72840    0.81580    0.86720    1.000
    F211     F        0.64120    0.81710    0.91710    1.000
    F212     F        0.66550    0.79310    0.96240    1.000
    C261     C        0.72580    0.79640    0.91370    1.000
    C262     C        0.71320    0.80990    0.89080    1.000
    C263     C        0.68340    0.81730    0.89190    1.000
    C264     C        0.66890    0.81110    0.91580    1.000
    C265     C        0.68150    0.79760    0.93870    1.000
    O54      O        0.74598    0.28705    0.47043    1.000
    F213     F        0.75230    0.29080    0.41180    1.000
    F214     F        0.72840    0.31580    0.36720    1.000
    F215     F        0.64120    0.31710    0.41710    1.000
    F216     F        0.66550    0.29310    0.46240    1.000
    C266     C        0.72580    0.29640    0.41370    1.000
    C267     C        0.71320    0.30990    0.39080    1.000
    C268     C        0.68340    0.31730    0.39190    1.000
    C269     C        0.66890    0.31110    0.41580    1.000
    C270     C        0.68150    0.29760    0.43870    1.000
    O55      O        0.24598    0.78705    0.47043    1.000
    F217     F        0.25230    0.79080    0.41180    1.000
    F218     F        0.22840    0.81580    0.36720    1.000
    F219     F        0.14120    0.81710    0.41710    1.000
    F220     F        0.16550    0.79310    0.46240    1.000
    C271     C        0.22580    0.79640    0.41370    1.000
    C272     C        0.21320    0.80990    0.39080    1.000
    C273     C        0.18340    0.81730    0.39190    1.000
    C274     C        0.16890    0.81110    0.41580    1.000
    C275     C        0.18150    0.79760    0.43870    1.000
    O56      O        0.24598    0.28705    0.97043    1.000
    F221     F        0.25230    0.29080    0.91180    1.000
    F222     F        0.22840    0.31580    0.86720    1.000
    F223     F        0.14120    0.31710    0.91710    1.000
    F224     F        0.16550    0.29310    0.96240    1.000
    C276     C        0.22580    0.29640    0.91370    1.000
    C277     C        0.21320    0.30990    0.89080    1.000
    C278     C        0.18340    0.31730    0.89190    1.000
    C279     C        0.16890    0.31110    0.91580    1.000
    C280     C        0.18150    0.29760    0.93870    1.000
    O57      O        0.25402    0.78705    0.02957    1.000
    F225     F        0.24770    0.79080    0.08820    1.000
    F226     F        0.27160    0.81580    0.13280    1.000
    F227     F        0.35880    0.81710    0.08290    1.000
    F228     F        0.33450    0.79310    0.03760    1.000
    C281     C        0.27420    0.79640    0.08630    1.000
    C282     C        0.28680    0.80990    0.10920    1.000
    C283     C        0.31660    0.81730    0.10810    1.000
    C284     C        0.33110    0.81110    0.08420    1.000
    C285     C        0.31850    0.79760    0.06130    1.000
    O58      O        0.25402    0.28705    0.52957    1.000
    F229     F        0.24770    0.29080    0.58820    1.000
    F230     F        0.27160    0.31580    0.63280    1.000
    F231     F        0.35880    0.31710    0.58290    1.000
    F232     F        0.33450    0.29310    0.53760    1.000
    C286     C        0.27420    0.29640    0.58630    1.000
    C287     C        0.28680    0.30990    0.60920    1.000
    C288     C        0.31660    0.31730    0.60810    1.000
    C289     C        0.33110    0.31110    0.58420    1.000
    C290     C        0.31850    0.29760    0.56130    1.000
    O59      O        0.75402    0.78705    0.52957    1.000
    F233     F        0.74770    0.79080    0.58820    1.000
    F234     F        0.77160    0.81580    0.63280    1.000
    F235     F        0.85880    0.81710    0.58290    1.000
    F236     F        0.83450    0.79310    0.53760    1.000
    C291     C        0.77420    0.79640    0.58630    1.000
    C292     C        0.78680    0.80990    0.60920    1.000
    C293     C        0.81660    0.81730    0.60810    1.000
    C294     C        0.83110    0.81110    0.58420    1.000
    C295     C        0.81850    0.79760    0.56130    1.000
    O60      O        0.75402    0.28705    0.02957    1.000
    F237     F        0.74770    0.29080    0.08820    1.000
    F238     F        0.77160    0.31580    0.13280    1.000
    F239     F        0.85880    0.31710    0.08290    1.000
    F240     F        0.83450    0.29310    0.03760    1.000
    C296     C        0.77420    0.29640    0.08630    1.000
    C297     C        0.78680    0.30990    0.10920    1.000
    C298     C        0.81660    0.31730    0.10810    1.000
    C299     C        0.83110    0.31110    0.08420    1.000
    C300     C        0.81850    0.29760    0.06130    1.000
    O61      O        0.74598    0.21295    0.02957    1.000
    F241     F        0.75230    0.20920    0.08820    1.000
    F242     F        0.72840    0.18420    0.13280    1.000
    F243     F        0.64120    0.18290    0.08290    1.000
    F244     F        0.66550    0.20690    0.03760    1.000
    C301     C        0.72580    0.20360    0.08630    1.000
    C302     C        0.71320    0.19010    0.10920    1.000
    C303     C        0.68340    0.18270    0.10810    1.000
    C304     C        0.66890    0.18890    0.08420    1.000
    C305     C        0.68150    0.20240    0.06130    1.000
    O62      O        0.74598    0.71295    0.52957    1.000
    F245     F        0.75230    0.70920    0.58820    1.000
    F246     F        0.72840    0.68420    0.63280    1.000
    F247     F        0.64120    0.68290    0.58290    1.000
    F248     F        0.66550    0.70690    0.53760    1.000
    C306     C        0.72580    0.70360    0.58630    1.000
    C307     C        0.71320    0.69010    0.60920    1.000
    C308     C        0.68340    0.68270    0.60810    1.000
    C309     C        0.66890    0.68890    0.58420    1.000
    C310     C        0.68150    0.70240    0.56130    1.000
    O63      O        0.24598    0.21295    0.52957    1.000
    F249     F        0.25230    0.20920    0.58820    1.000
    F250     F        0.22840    0.18420    0.63280    1.000
    F251     F        0.14120    0.18290    0.58290    1.000
    F252     F        0.16550    0.20690    0.53760    1.000
    C311     C        0.22580    0.20360    0.58630    1.000
    C312     C        0.21320    0.19010    0.60920    1.000
    C313     C        0.18340    0.18270    0.60810    1.000
    C314     C        0.16890    0.18890    0.58420    1.000
    C315     C        0.18150    0.20240    0.56130    1.000
    O64      O        0.24598    0.71295    0.02957    1.000
    F253     F        0.25230    0.70920    0.08820    1.000
    F254     F        0.22840    0.68420    0.13280    1.000
    F255     F        0.14120    0.68290    0.08290    1.000
    F256     F        0.16550    0.70690    0.03760    1.000
    C316     C        0.22580    0.70360    0.08630    1.000
    C317     C        0.21320    0.69010    0.10920    1.000
    C318     C        0.18340    0.68270    0.10810    1.000
    C319     C        0.16890    0.68890    0.08420    1.000
    C320     C        0.18150    0.70240    0.06130    1.000
    O65      O        0.21295    0.02957    0.74598    1.000
    F257     F        0.20920    0.08820    0.75230    1.000
    F258     F        0.18420    0.13280    0.72840    1.000
    F259     F        0.18290    0.08290    0.64120    1.000
    F260     F        0.20690    0.03760    0.66550    1.000
    C321     C        0.20360    0.08630    0.72580    1.000
    C322     C        0.19010    0.10920    0.71320    1.000
    C323     C        0.18270    0.10810    0.68340    1.000
    C324     C        0.18890    0.08420    0.66890    1.000
    C325     C        0.20240    0.06130    0.68150    1.000
    O66      O        0.21295    0.52957    0.24598    1.000
    F261     F        0.20920    0.58820    0.25230    1.000
    F262     F        0.18420    0.63280    0.22840    1.000
    F263     F        0.18290    0.58290    0.14120    1.000
    F264     F        0.20690    0.53760    0.16550    1.000
    C326     C        0.20360    0.58630    0.22580    1.000
    C327     C        0.19010    0.60920    0.21320    1.000
    C328     C        0.18270    0.60810    0.18340    1.000
    C329     C        0.18890    0.58420    0.16890    1.000
    C330     C        0.20240    0.56130    0.18150    1.000
    O67      O        0.71295    0.02957    0.24598    1.000
    F265     F        0.70920    0.08820    0.25230    1.000
    F266     F        0.68420    0.13280    0.22840    1.000
    F267     F        0.68290    0.08290    0.14120    1.000
    F268     F        0.70690    0.03760    0.16550    1.000
    C331     C        0.70360    0.08630    0.22580    1.000
    C332     C        0.69010    0.10920    0.21320    1.000
    C333     C        0.68270    0.10810    0.18340    1.000
    C334     C        0.68890    0.08420    0.16890    1.000
    C335     C        0.70240    0.06130    0.18150    1.000
    O68      O        0.71295    0.52957    0.74598    1.000
    F269     F        0.70920    0.58820    0.75230    1.000
    F270     F        0.68420    0.63280    0.72840    1.000
    F271     F        0.68290    0.58290    0.64120    1.000
    F272     F        0.70690    0.53760    0.66550    1.000
    C336     C        0.70360    0.58630    0.72580    1.000
    C337     C        0.69010    0.60920    0.71320    1.000
    C338     C        0.68270    0.60810    0.68340    1.000
    C339     C        0.68890    0.58420    0.66890    1.000
    C340     C        0.70240    0.56130    0.68150    1.000
    O69      O        0.78705    0.02957    0.25402    1.000
    F273     F        0.79080    0.08820    0.24770    1.000
    F274     F        0.81580    0.13280    0.27160    1.000
    F275     F        0.81710    0.08290    0.35880    1.000
    F276     F        0.79310    0.03760    0.33450    1.000
    C341     C        0.79640    0.08630    0.27420    1.000
    C342     C        0.80990    0.10920    0.28680    1.000
    C343     C        0.81730    0.10810    0.31660    1.000
    C344     C        0.81110    0.08420    0.33110    1.000
    C345     C        0.79760    0.06130    0.31850    1.000
    O70      O        0.78705    0.52957    0.75402    1.000
    F277     F        0.79080    0.58820    0.74770    1.000
    F278     F        0.81580    0.63280    0.77160    1.000
    F279     F        0.81710    0.58290    0.85880    1.000
    F280     F        0.79310    0.53760    0.83450    1.000
    C346     C        0.79640    0.58630    0.77420    1.000
    C347     C        0.80990    0.60920    0.78680    1.000
    C348     C        0.81730    0.60810    0.81660    1.000
    C349     C        0.81110    0.58420    0.83110    1.000
    C350     C        0.79760    0.56130    0.81850    1.000
    O71      O        0.28705    0.02957    0.75402    1.000
    F281     F        0.29080    0.08820    0.74770    1.000
    F282     F        0.31580    0.13280    0.77160    1.000
    F283     F        0.31710    0.08290    0.85880    1.000
    F284     F        0.29310    0.03760    0.83450    1.000
    C351     C        0.29640    0.08630    0.77420    1.000
    C352     C        0.30990    0.10920    0.78680    1.000
    C353     C        0.31730    0.10810    0.81660    1.000
    C354     C        0.31110    0.08420    0.83110    1.000
    C355     C        0.29760    0.06130    0.81850    1.000
    O72      O        0.28705    0.52957    0.25402    1.000
    F285     F        0.29080    0.58820    0.24770    1.000
    F286     F        0.31580    0.63280    0.27160    1.000
    F287     F        0.31710    0.58290    0.35880    1.000
    F288     F        0.29310    0.53760    0.33450    1.000
    C356     C        0.29640    0.58630    0.27420    1.000
    C357     C        0.30990    0.60920    0.28680    1.000
    C358     C        0.31730    0.60810    0.31660    1.000
    C359     C        0.31110    0.58420    0.33110    1.000
    C360     C        0.29760    0.56130    0.31850    1.000
    O73      O        0.78705    0.97043    0.74598    1.000
    F289     F        0.79080    0.91180    0.75230    1.000
    F290     F        0.81580    0.86720    0.72840    1.000
    F291     F        0.81710    0.91710    0.64120    1.000
    F292     F        0.79310    0.96240    0.66550    1.000
    C361     C        0.79640    0.91370    0.72580    1.000
    C362     C        0.80990    0.89080    0.71320    1.000
    C363     C        0.81730    0.89190    0.68340    1.000
    C364     C        0.81110    0.91580    0.66890    1.000
    C365     C        0.79760    0.93870    0.68150    1.000
    O74      O        0.78705    0.47043    0.24598    1.000
    F293     F        0.79080    0.41180    0.25230    1.000
    F294     F        0.81580    0.36720    0.22840    1.000
    F295     F        0.81710    0.41710    0.14120    1.000
    F296     F        0.79310    0.46240    0.16550    1.000
    C366     C        0.79640    0.41370    0.22580    1.000
    C367     C        0.80990    0.39080    0.21320    1.000
    C368     C        0.81730    0.39190    0.18340    1.000
    C369     C        0.81110    0.41580    0.16890    1.000
    C370     C        0.79760    0.43870    0.18150    1.000
    O75      O        0.28705    0.97043    0.24598    1.000
    F297     F        0.29080    0.91180    0.25230    1.000
    F298     F        0.31580    0.86720    0.22840    1.000
    F299     F        0.31710    0.91710    0.14120    1.000
    F300     F        0.29310    0.96240    0.16550    1.000
    C371     C        0.29640    0.91370    0.22580    1.000
    C372     C        0.30990    0.89080    0.21320    1.000
    C373     C        0.31730    0.89190    0.18340    1.000
    C374     C        0.31110    0.91580    0.16890    1.000
    C375     C        0.29760    0.93870    0.18150    1.000
    O76      O        0.28705    0.47043    0.74598    1.000
    F301     F        0.29080    0.41180    0.75230    1.000
    F302     F        0.31580    0.36720    0.72840    1.000
    F303     F        0.31710    0.41710    0.64120    1.000
    F304     F        0.29310    0.46240    0.66550    1.000
    C376     C        0.29640    0.41370    0.72580    1.000
    C377     C        0.30990    0.39080    0.71320    1.000
    C378     C        0.31730    0.39190    0.68340    1.000
    C379     C        0.31110    0.41580    0.66890    1.000
    C380     C        0.29760    0.43870    0.68150    1.000
    O77      O        0.21295    0.97043    0.25402    1.000
    F305     F        0.20920    0.91180    0.24770    1.000
    F306     F        0.18420    0.86720    0.27160    1.000
    F307     F        0.18290    0.91710    0.35880    1.000
    F308     F        0.20690    0.96240    0.33450    1.000
    C381     C        0.20360    0.91370    0.27420    1.000
    C382     C        0.19010    0.89080    0.28680    1.000
    C383     C        0.18270    0.89190    0.31660    1.000
    C384     C        0.18890    0.91580    0.33110    1.000
    C385     C        0.20240    0.93870    0.31850    1.000
    O78      O        0.21295    0.47043    0.75402    1.000
    F309     F        0.20920    0.41180    0.74770    1.000
    F310     F        0.18420    0.36720    0.77160    1.000
    F311     F        0.18290    0.41710    0.85880    1.000
    F312     F        0.20690    0.46240    0.83450    1.000
    C386     C        0.20360    0.41370    0.77420    1.000
    C387     C        0.19010    0.39080    0.78680    1.000
    C388     C        0.18270    0.39190    0.81660    1.000
    C389     C        0.18890    0.41580    0.83110    1.000
    C390     C        0.20240    0.43870    0.81850    1.000
    O79      O        0.71295    0.97043    0.75402    1.000
    F313     F        0.70920    0.91180    0.74770    1.000
    F314     F        0.68420    0.86720    0.77160    1.000
    F315     F        0.68290    0.91710    0.85880    1.000
    F316     F        0.70690    0.96240    0.83450    1.000
    C391     C        0.70360    0.91370    0.77420    1.000
    C392     C        0.69010    0.89080    0.78680    1.000
    C393     C        0.68270    0.89190    0.81660    1.000
    C394     C        0.68890    0.91580    0.83110    1.000
    C395     C        0.70240    0.93870    0.81850    1.000
    O80      O        0.71295    0.47043    0.25402    1.000
    F317     F        0.70920    0.41180    0.24770    1.000
    F318     F        0.68420    0.36720    0.27160    1.000
    F319     F        0.68290    0.41710    0.35880    1.000
    F320     F        0.70690    0.46240    0.33450    1.000
    C396     C        0.70360    0.41370    0.27420    1.000
    C397     C        0.69010    0.39080    0.28680    1.000
    C398     C        0.68270    0.39190    0.31660    1.000
    C399     C        0.68890    0.41580    0.33110    1.000
    C400     C        0.70240    0.43870    0.31850    1.000
    O81      O        0.02957    0.25402    0.78705    1.000
    F321     F        0.08820    0.24770    0.79080    1.000
    F322     F        0.13280    0.27160    0.81580    1.000
    F323     F        0.08290    0.35880    0.81710    1.000
    F324     F        0.03760    0.33450    0.79310    1.000
    C401     C        0.08630    0.27420    0.79640    1.000
    C402     C        0.10920    0.28680    0.80990    1.000
    C403     C        0.10810    0.31660    0.81730    1.000
    C404     C        0.08420    0.33110    0.81110    1.000
    C405     C        0.06130    0.31850    0.79760    1.000
    O82      O        0.02957    0.75402    0.28705    1.000
    F325     F        0.08820    0.74770    0.29080    1.000
    F326     F        0.13280    0.77160    0.31580    1.000
    F327     F        0.08290    0.85880    0.31710    1.000
    F328     F        0.03760    0.83450    0.29310    1.000
    C406     C        0.08630    0.77420    0.29640    1.000
    C407     C        0.10920    0.78680    0.30990    1.000
    C408     C        0.10810    0.81660    0.31730    1.000
    C409     C        0.08420    0.83110    0.31110    1.000
    C410     C        0.06130    0.81850    0.29760    1.000
    O83      O        0.52957    0.25402    0.28705    1.000
    F329     F        0.58820    0.24770    0.29080    1.000
    F330     F        0.63280    0.27160    0.31580    1.000
    F331     F        0.58290    0.35880    0.31710    1.000
    F332     F        0.53760    0.33450    0.29310    1.000
    C411     C        0.58630    0.27420    0.29640    1.000
    C412     C        0.60920    0.28680    0.30990    1.000
    C413     C        0.60810    0.31660    0.31730    1.000
    C414     C        0.58420    0.33110    0.31110    1.000
    C415     C        0.56130    0.31850    0.29760    1.000
    O84      O        0.52957    0.75402    0.78705    1.000
    F333     F        0.58820    0.74770    0.79080    1.000
    F334     F        0.63280    0.77160    0.81580    1.000
    F335     F        0.58290    0.85880    0.81710    1.000
    F336     F        0.53760    0.83450    0.79310    1.000
    C416     C        0.58630    0.77420    0.79640    1.000
    C417     C        0.60920    0.78680    0.80990    1.000
    C418     C        0.60810    0.81660    0.81730    1.000
    C419     C        0.58420    0.83110    0.81110    1.000
    C420     C        0.56130    0.81850    0.79760    1.000
    O85      O        0.02957    0.74598    0.21295    1.000
    F337     F        0.08820    0.75230    0.20920    1.000
    F338     F        0.13280    0.72840    0.18420    1.000
    F339     F        0.08290    0.64120    0.18290    1.000
    F340     F        0.03760    0.66550    0.20690    1.000
    C421     C        0.08630    0.72580    0.20360    1.000
    C422     C        0.10920    0.71320    0.19010    1.000
    C423     C        0.10810    0.68340    0.18270    1.000
    C424     C        0.08420    0.66890    0.18890    1.000
    C425     C        0.06130    0.68150    0.20240    1.000
    O86      O        0.02957    0.24598    0.71295    1.000
    F341     F        0.08820    0.25230    0.70920    1.000
    F342     F        0.13280    0.22840    0.68420    1.000
    F343     F        0.08290    0.14120    0.68290    1.000
    F344     F        0.03760    0.16550    0.70690    1.000
    C426     C        0.08630    0.22580    0.70360    1.000
    C427     C        0.10920    0.21320    0.69010    1.000
    C428     C        0.10810    0.18340    0.68270    1.000
    C429     C        0.08420    0.16890    0.68890    1.000
    C430     C        0.06130    0.18150    0.70240    1.000
    O87      O        0.52957    0.74598    0.71295    1.000
    F345     F        0.58820    0.75230    0.70920    1.000
    F346     F        0.63280    0.72840    0.68420    1.000
    F347     F        0.58290    0.64120    0.68290    1.000
    F348     F        0.53760    0.66550    0.70690    1.000
    C431     C        0.58630    0.72580    0.70360    1.000
    C432     C        0.60920    0.71320    0.69010    1.000
    C433     C        0.60810    0.68340    0.68270    1.000
    C434     C        0.58420    0.66890    0.68890    1.000
    C435     C        0.56130    0.68150    0.70240    1.000
    O88      O        0.52957    0.24598    0.21295    1.000
    F349     F        0.58820    0.25230    0.20920    1.000
    F350     F        0.63280    0.22840    0.18420    1.000
    F351     F        0.58290    0.14120    0.18290    1.000
    F352     F        0.53760    0.16550    0.20690    1.000
    C436     C        0.58630    0.22580    0.20360    1.000
    C437     C        0.60920    0.21320    0.19010    1.000
    C438     C        0.60810    0.18340    0.18270    1.000
    C439     C        0.58420    0.16890    0.18890    1.000
    C440     C        0.56130    0.18150    0.20240    1.000
    O89      O        0.97043    0.25402    0.21295    1.000
    F353     F        0.91180    0.24770    0.20920    1.000
    F354     F        0.86720    0.27160    0.18420    1.000
    F355     F        0.91710    0.35880    0.18290    1.000
    F356     F        0.96240    0.33450    0.20690    1.000
    C441     C        0.91370    0.27420    0.20360    1.000
    C442     C        0.89080    0.28680    0.19010    1.000
    C443     C        0.89190    0.31660    0.18270    1.000
    C444     C        0.91580    0.33110    0.18890    1.000
    C445     C        0.93870    0.31850    0.20240    1.000
    O90      O        0.97043    0.75402    0.71295    1.000
    F357     F        0.91180    0.74770    0.70920    1.000
    F358     F        0.86720    0.77160    0.68420    1.000
    F359     F        0.91710    0.85880    0.68290    1.000
    F360     F        0.96240    0.83450    0.70690    1.000
    C446     C        0.91370    0.77420    0.70360    1.000
    C447     C        0.89080    0.78680    0.69010    1.000
    C448     C        0.89190    0.81660    0.68270    1.000
    C449     C        0.91580    0.83110    0.68890    1.000
    C450     C        0.93870    0.81850    0.70240    1.000
    O91      O        0.47043    0.25402    0.71295    1.000
    F361     F        0.41180    0.24770    0.70920    1.000
    F362     F        0.36720    0.27160    0.68420    1.000
    F363     F        0.41710    0.35880    0.68290    1.000
    F364     F        0.46240    0.33450    0.70690    1.000
    C451     C        0.41370    0.27420    0.70360    1.000
    C452     C        0.39080    0.28680    0.69010    1.000
    C453     C        0.39190    0.31660    0.68270    1.000
    C454     C        0.41580    0.33110    0.68890    1.000
    C455     C        0.43870    0.31850    0.70240    1.000
    O92      O        0.47043    0.75402    0.21295    1.000
    F365     F        0.41180    0.74770    0.20920    1.000
    F366     F        0.36720    0.77160    0.18420    1.000
    F367     F        0.41710    0.85880    0.18290    1.000
    F368     F        0.46240    0.83450    0.20690    1.000
    C456     C        0.41370    0.77420    0.20360    1.000
    C457     C        0.39080    0.78680    0.19010    1.000
    C458     C        0.39190    0.81660    0.18270    1.000
    C459     C        0.41580    0.83110    0.18890    1.000
    C460     C        0.43870    0.81850    0.20240    1.000
    O93      O        0.97043    0.74598    0.78705    1.000
    F369     F        0.91180    0.75230    0.79080    1.000
    F370     F        0.86720    0.72840    0.81580    1.000
    F371     F        0.91710    0.64120    0.81710    1.000
    F372     F        0.96240    0.66550    0.79310    1.000
    C461     C        0.91370    0.72580    0.79640    1.000
    C462     C        0.89080    0.71320    0.80990    1.000
    C463     C        0.89190    0.68340    0.81730    1.000
    C464     C        0.91580    0.66890    0.81110    1.000
    C465     C        0.93870    0.68150    0.79760    1.000
    O94      O        0.97043    0.24598    0.28705    1.000
    F373     F        0.91180    0.25230    0.29080    1.000
    F374     F        0.86720    0.22840    0.31580    1.000
    F375     F        0.91710    0.14120    0.31710    1.000
    F376     F        0.96240    0.16550    0.29310    1.000
    C466     C        0.91370    0.22580    0.29640    1.000
    C467     C        0.89080    0.21320    0.30990    1.000
    C468     C        0.89190    0.18340    0.31730    1.000
    C469     C        0.91580    0.16890    0.31110    1.000
    C470     C        0.93870    0.18150    0.29760    1.000
    O95      O        0.47043    0.74598    0.28705    1.000
    F377     F        0.41180    0.75230    0.29080    1.000
    F378     F        0.36720    0.72840    0.31580    1.000
    F379     F        0.41710    0.64120    0.31710    1.000
    F380     F        0.46240    0.66550    0.29310    1.000
    C471     C        0.41370    0.72580    0.29640    1.000
    C472     C        0.39080    0.71320    0.30990    1.000
    C473     C        0.39190    0.68340    0.31730    1.000
    C474     C        0.41580    0.66890    0.31110    1.000
    C475     C        0.43870    0.68150    0.29760    1.000
    O96      O        0.47043    0.24598    0.78705    1.000
    F381     F        0.41180    0.25230    0.79080    1.000
    F382     F        0.36720    0.22840    0.81580    1.000
    F383     F        0.41710    0.14120    0.81710    1.000
    F384     F        0.46240    0.16550    0.79310    1.000
    C476     C        0.41370    0.22580    0.79640    1.000
    C477     C        0.39080    0.21320    0.80990    1.000
    C478     C        0.39190    0.18340    0.81730    1.000
    C479     C        0.41580    0.16890    0.81110    1.000
    C480     C        0.43870    0.18150    0.79760    1.000
    O97      O        0.78705    0.74598    0.97043    1.000
    F385     F        0.79080    0.75230    0.91180    1.000
    F386     F        0.81580    0.72840    0.86720    1.000
    F387     F        0.81710    0.64120    0.91710    1.000
    F388     F        0.79310    0.66550    0.96240    1.000
    C481     C        0.79640    0.72580    0.91370    1.000
    C482     C        0.80990    0.71320    0.89080    1.000
    C483     C        0.81110    0.66890    0.91580    1.000
    C484     C        0.79760    0.68150    0.93870    1.000
    O98      O        0.78705    0.24598    0.47043    1.000
    F389     F        0.79080    0.25230    0.41180    1.000
    F390     F        0.81580    0.22840    0.36720    1.000
    F391     F        0.81710    0.14120    0.41710    1.000
    F392     F        0.79310    0.16550    0.46240    1.000
    C485     C        0.79640    0.22580    0.41370    1.000
    C486     C        0.80990    0.21320    0.39080    1.000
    C487     C        0.81110    0.16890    0.41580    1.000
    C488     C        0.79760    0.18150    0.43870    1.000
    O99      O        0.28705    0.74598    0.47043    1.000
    F393     F        0.29080    0.75230    0.41180    1.000
    F394     F        0.31580    0.72840    0.36720    1.000
    F395     F        0.31710    0.64120    0.41710    1.000
    F396     F        0.29310    0.66550    0.46240    1.000
    C489     C        0.29640    0.72580    0.41370    1.000
    C490     C        0.30990    0.71320    0.39080    1.000
    C491     C        0.31110    0.66890    0.41580    1.000
    C492     C        0.29760    0.68150    0.43870    1.000
    O100     O        0.28705    0.24598    0.97043    1.000
    F397     F        0.29080    0.25230    0.91180    1.000
    F398     F        0.31580    0.22840    0.86720    1.000
    F399     F        0.31710    0.14120    0.91710    1.000
    F400     F        0.29310    0.16550    0.96240    1.000
    C493     C        0.29640    0.22580    0.91370    1.000
    C494     C        0.30990    0.21320    0.89080    1.000
    C495     C        0.31110    0.16890    0.91580    1.000
    C496     C        0.29760    0.18150    0.93870    1.000
    O101     O        0.21295    0.25402    0.97043    1.000
    F401     F        0.20920    0.24770    0.91180    1.000
    F402     F        0.18420    0.27160    0.86720    1.000
    F403     F        0.18290    0.35880    0.91710    1.000
    F404     F        0.20690    0.33450    0.96240    1.000
    C497     C        0.20360    0.27420    0.91370    1.000
    C498     C        0.19010    0.28680    0.89080    1.000
    C499     C        0.18890    0.33110    0.91580    1.000
    C500     C        0.20240    0.31850    0.93870    1.000
    O102     O        0.21295    0.75402    0.47043    1.000
    F405     F        0.20920    0.74770    0.41180    1.000
    F406     F        0.18420    0.77160    0.36720    1.000
    F407     F        0.18290    0.85880    0.41710    1.000
    F408     F        0.20690    0.83450    0.46240    1.000
    C501     C        0.20360    0.77420    0.41370    1.000
    C502     C        0.19010    0.78680    0.39080    1.000
    C503     C        0.18890    0.83110    0.41580    1.000
    C504     C        0.20240    0.81850    0.43870    1.000
    O103     O        0.71295    0.25402    0.47043    1.000
    F409     F        0.70920    0.24770    0.41180    1.000
    F410     F        0.68420    0.27160    0.36720    1.000
    F411     F        0.68290    0.35880    0.41710    1.000
    F412     F        0.70690    0.33450    0.46240    1.000
    C505     C        0.70360    0.27420    0.41370    1.000
    C506     C        0.69010    0.28680    0.39080    1.000
    C507     C        0.68890    0.33110    0.41580    1.000
    C508     C        0.70240    0.31850    0.43870    1.000
    O104     O        0.71295    0.75402    0.97043    1.000
    F413     F        0.70920    0.74770    0.91180    1.000
    F414     F        0.68420    0.77160    0.86720    1.000
    F415     F        0.68290    0.85880    0.91710    1.000
    F416     F        0.70690    0.83450    0.96240    1.000
    C509     C        0.70360    0.77420    0.91370    1.000
    C510     C        0.69010    0.78680    0.89080    1.000
    C511     C        0.68890    0.83110    0.91580    1.000
    C512     C        0.70240    0.81850    0.93870    1.000
    O105     O        0.21295    0.74598    0.02957    1.000
    F417     F        0.20920    0.75230    0.08820    1.000
    F418     F        0.18420    0.72840    0.13280    1.000
    F419     F        0.18290    0.64120    0.08290    1.000
    F420     F        0.20690    0.66550    0.03760    1.000
    C513     C        0.20360    0.72580    0.08630    1.000
    C514     C        0.19010    0.71320    0.10920    1.000
    C515     C        0.18890    0.66890    0.08420    1.000
    C516     C        0.20240    0.68150    0.06130    1.000
    O106     O        0.21295    0.24598    0.52957    1.000
    F421     F        0.20920    0.25230    0.58820    1.000
    F422     F        0.18420    0.22840    0.63280    1.000
    F423     F        0.18290    0.14120    0.58290    1.000
    F424     F        0.20690    0.16550    0.53760    1.000
    C517     C        0.20360    0.22580    0.58630    1.000
    C518     C        0.19010    0.21320    0.60920    1.000
    C519     C        0.18890    0.16890    0.58420    1.000
    C520     C        0.20240    0.18150    0.56130    1.000
    O107     O        0.71295    0.74598    0.52957    1.000
    F425     F        0.70920    0.75230    0.58820    1.000
    F426     F        0.68420    0.72840    0.63280    1.000
    F427     F        0.68290    0.64120    0.58290    1.000
    F428     F        0.70690    0.66550    0.53760    1.000
    C521     C        0.70360    0.72580    0.58630    1.000
    C522     C        0.69010    0.71320    0.60920    1.000
    C523     C        0.68890    0.66890    0.58420    1.000
    C524     C        0.70240    0.68150    0.56130    1.000
    O108     O        0.71295    0.24598    0.02957    1.000
    F429     F        0.70920    0.25230    0.08820    1.000
    F430     F        0.68420    0.22840    0.13280    1.000
    F431     F        0.68290    0.14120    0.08290    1.000
    F432     F        0.70690    0.16550    0.03760    1.000
    C525     C        0.70360    0.22580    0.08630    1.000
    C526     C        0.69010    0.21320    0.10920    1.000
    C527     C        0.68890    0.16890    0.08420    1.000
    C528     C        0.70240    0.18150    0.06130    1.000
    O109     O        0.78705    0.25402    0.02957    1.000
    F433     F        0.79080    0.24770    0.08820    1.000
    F434     F        0.81580    0.27160    0.13280    1.000
    F435     F        0.81710    0.35880    0.08290    1.000
    F436     F        0.79310    0.33450    0.03760    1.000
    C529     C        0.79640    0.27420    0.08630    1.000
    C530     C        0.80990    0.28680    0.10920    1.000
    C531     C        0.81110    0.33110    0.08420    1.000
    C532     C        0.79760    0.31850    0.06130    1.000
    O110     O        0.78705    0.75402    0.52957    1.000
    F437     F        0.79080    0.74770    0.58820    1.000
    F438     F        0.81580    0.77160    0.63280    1.000
    F439     F        0.81710    0.85880    0.58290    1.000
    F440     F        0.79310    0.83450    0.53760    1.000
    C533     C        0.79640    0.77420    0.58630    1.000
    C534     C        0.80990    0.78680    0.60920    1.000
    C535     C        0.81110    0.83110    0.58420    1.000
    C536     C        0.79760    0.81850    0.56130    1.000
    O111     O        0.28705    0.25402    0.52957    1.000
    F441     F        0.29080    0.24770    0.58820    1.000
    F442     F        0.31580    0.27160    0.63280    1.000
    F443     F        0.31710    0.35880    0.58290    1.000
    F444     F        0.29310    0.33450    0.53760    1.000
    C537     C        0.29640    0.27420    0.58630    1.000
    C538     C        0.30990    0.28680    0.60920    1.000
    C539     C        0.31110    0.33110    0.58420    1.000
    C540     C        0.29760    0.31850    0.56130    1.000
    O112     O        0.28705    0.75402    0.02957    1.000
    F445     F        0.29080    0.74770    0.08820    1.000
    F446     F        0.31580    0.77160    0.13280    1.000
    F447     F        0.31710    0.85880    0.08290    1.000
    F448     F        0.29310    0.83450    0.03760    1.000
    C541     C        0.29640    0.77420    0.08630    1.000
    C542     C        0.30990    0.78680    0.10920    1.000
    C543     C        0.31110    0.83110    0.08420    1.000
    C544     C        0.29760    0.81850    0.06130    1.000
    O113     O        0.97043    0.78705    0.74598    1.000
    F449     F        0.91180    0.79080    0.75230    1.000
    F450     F        0.86720    0.81580    0.72840    1.000
    F451     F        0.91710    0.81710    0.64120    1.000
    F452     F        0.96240    0.79310    0.66550    1.000
    C545     C        0.91370    0.79640    0.72580    1.000
    C546     C        0.89080    0.80990    0.71320    1.000
    C547     C        0.91580    0.81110    0.66890    1.000
    C548     C        0.93870    0.79760    0.68150    1.000
    O114     O        0.97043    0.28705    0.24598    1.000
    F453     F        0.91180    0.29080    0.25230    1.000
    F454     F        0.86720    0.31580    0.22840    1.000
    F455     F        0.91710    0.31710    0.14120    1.000
    F456     F        0.96240    0.29310    0.16550    1.000
    C549     C        0.91370    0.29640    0.22580    1.000
    C550     C        0.89080    0.30990    0.21320    1.000
    C551     C        0.91580    0.31110    0.16890    1.000
    C552     C        0.93870    0.29760    0.18150    1.000
    O115     O        0.47043    0.78705    0.24598    1.000
    F457     F        0.41180    0.79080    0.25230    1.000
    F458     F        0.36720    0.81580    0.22840    1.000
    F459     F        0.41710    0.81710    0.14120    1.000
    F460     F        0.46240    0.79310    0.16550    1.000
    C553     C        0.41370    0.79640    0.22580    1.000
    C554     C        0.39080    0.80990    0.21320    1.000
    C555     C        0.41580    0.81110    0.16890    1.000
    C556     C        0.43870    0.79760    0.18150    1.000
    O116     O        0.47043    0.28705    0.74598    1.000
    F461     F        0.41180    0.29080    0.75230    1.000
    F462     F        0.36720    0.31580    0.72840    1.000
    F463     F        0.41710    0.31710    0.64120    1.000
    F464     F        0.46240    0.29310    0.66550    1.000
    C557     C        0.41370    0.29640    0.72580    1.000
    C558     C        0.39080    0.30990    0.71320    1.000
    C559     C        0.41580    0.31110    0.66890    1.000
    C560     C        0.43870    0.29760    0.68150    1.000
    O117     O        0.97043    0.21295    0.25402    1.000
    F465     F        0.91180    0.20920    0.24770    1.000
    F466     F        0.86720    0.18420    0.27160    1.000
    F467     F        0.91710    0.18290    0.35880    1.000
    F468     F        0.96240    0.20690    0.33450    1.000
    C561     C        0.91370    0.20360    0.27420    1.000
    C562     C        0.89080    0.19010    0.28680    1.000
    C563     C        0.91580    0.18890    0.33110    1.000
    C564     C        0.93870    0.20240    0.31850    1.000
    O118     O        0.97043    0.71295    0.75402    1.000
    F469     F        0.91180    0.70920    0.74770    1.000
    F470     F        0.86720    0.68420    0.77160    1.000
    F471     F        0.91710    0.68290    0.85880    1.000
    F472     F        0.96240    0.70690    0.83450    1.000
    C565     C        0.91370    0.70360    0.77420    1.000
    C566     C        0.89080    0.69010    0.78680    1.000
    C567     C        0.91580    0.68890    0.83110    1.000
    C568     C        0.93870    0.70240    0.81850    1.000
    O119     O        0.47043    0.21295    0.75402    1.000
    F473     F        0.41180    0.20920    0.74770    1.000
    F474     F        0.36720    0.18420    0.77160    1.000
    F475     F        0.41710    0.18290    0.85880    1.000
    F476     F        0.46240    0.20690    0.83450    1.000
    C569     C        0.41370    0.20360    0.77420    1.000
    C570     C        0.39080    0.19010    0.78680    1.000
    C571     C        0.41580    0.18890    0.83110    1.000
    C572     C        0.43870    0.20240    0.81850    1.000
    O120     O        0.47043    0.71295    0.25402    1.000
    F477     F        0.41180    0.70920    0.24770    1.000
    F478     F        0.36720    0.68420    0.27160    1.000
    F479     F        0.41710    0.68290    0.35880    1.000
    F480     F        0.46240    0.70690    0.33450    1.000
    C573     C        0.41370    0.70360    0.27420    1.000
    C574     C        0.39080    0.69010    0.28680    1.000
    C575     C        0.41580    0.68890    0.33110    1.000
    C576     C        0.43870    0.70240    0.31850    1.000
    O121     O        0.02957    0.21295    0.74598    1.000
    F481     F        0.08820    0.20920    0.75230    1.000
    F482     F        0.13280    0.18420    0.72840    1.000
    F483     F        0.08290    0.18290    0.64120    1.000
    F484     F        0.03760    0.20690    0.66550    1.000
    C577     C        0.08630    0.20360    0.72580    1.000
    C578     C        0.10920    0.19010    0.71320    1.000
    C579     C        0.08420    0.18890    0.66890    1.000
    C580     C        0.06130    0.20240    0.68150    1.000
    O122     O        0.02957    0.71295    0.24598    1.000
    F485     F        0.08820    0.70920    0.25230    1.000
    F486     F        0.13280    0.68420    0.22840    1.000
    F487     F        0.08290    0.68290    0.14120    1.000
    F488     F        0.03760    0.70690    0.16550    1.000
    C581     C        0.08630    0.70360    0.22580    1.000
    C582     C        0.10920    0.69010    0.21320    1.000
    C583     C        0.08420    0.68890    0.16890    1.000
    C584     C        0.06130    0.70240    0.18150    1.000
    O123     O        0.52957    0.21295    0.24598    1.000
    F489     F        0.58820    0.20920    0.25230    1.000
    F490     F        0.63280    0.18420    0.22840    1.000
    F491     F        0.58290    0.18290    0.14120    1.000
    F492     F        0.53760    0.20690    0.16550    1.000
    C585     C        0.58630    0.20360    0.22580    1.000
    C586     C        0.60920    0.19010    0.21320    1.000
    C587     C        0.58420    0.18890    0.16890    1.000
    C588     C        0.56130    0.20240    0.18150    1.000
    O124     O        0.52957    0.71295    0.74598    1.000
    F493     F        0.58820    0.70920    0.75230    1.000
    F494     F        0.63280    0.68420    0.72840    1.000
    F495     F        0.58290    0.68290    0.64120    1.000
    F496     F        0.53760    0.70690    0.66550    1.000
    C589     C        0.58630    0.70360    0.72580    1.000
    C590     C        0.60920    0.69010    0.71320    1.000
    C591     C        0.58420    0.68890    0.66890    1.000
    C592     C        0.56130    0.70240    0.68150    1.000
    O125     O        0.02957    0.78705    0.25402    1.000
    F497     F        0.08820    0.79080    0.24770    1.000
    F498     F        0.13280    0.81580    0.27160    1.000
    F499     F        0.08290    0.81710    0.35880    1.000
    F500     F        0.03760    0.79310    0.33450    1.000
    C593     C        0.08630    0.79640    0.27420    1.000
    C594     C        0.10920    0.80990    0.28680    1.000
    C595     C        0.08420    0.81110    0.33110    1.000
    C596     C        0.06130    0.79760    0.31850    1.000
    O126     O        0.02957    0.28705    0.75402    1.000
    F501     F        0.08820    0.29080    0.74770    1.000
    F502     F        0.13280    0.31580    0.77160    1.000
    F503     F        0.08290    0.31710    0.85880    1.000
    F504     F        0.03760    0.29310    0.83450    1.000
    C597     C        0.08630    0.29640    0.77420    1.000
    C598     C        0.10920    0.30990    0.78680    1.000
    C599     C        0.08420    0.31110    0.83110    1.000
    C600     C        0.06130    0.29760    0.81850    1.000
    O127     O        0.52957    0.78705    0.75402    1.000
    F505     F        0.58820    0.79080    0.74770    1.000
    F506     F        0.63280    0.81580    0.77160    1.000
    F507     F        0.58290    0.81710    0.85880    1.000
    F508     F        0.53760    0.79310    0.83450    1.000
    C601     C        0.58630    0.79640    0.77420    1.000
    C602     C        0.60920    0.80990    0.78680    1.000
    C603     C        0.58420    0.81110    0.83110    1.000
    C604     C        0.56130    0.79760    0.81850    1.000
    O128     O        0.52957    0.28705    0.25402    1.000
    F509     F        0.58820    0.29080    0.24770    1.000
    F510     F        0.63280    0.31580    0.27160    1.000
    F511     F        0.58290    0.31710    0.35880    1.000
    F512     F        0.53760    0.29310    0.33450    1.000
    C605     C        0.58630    0.29640    0.27420    1.000
    C606     C        0.60920    0.30990    0.28680    1.000
    C607     C        0.58420    0.31110    0.33110    1.000
    C608     C        0.56130    0.29760    0.31850    1.000
    O129     O        0.74598    0.97043    0.78705    1.000
    F513     F        0.75230    0.91180    0.79080    1.000
    F514     F        0.72840    0.86720    0.81580    1.000
    F515     F        0.64120    0.91710    0.81710    1.000
    F516     F        0.66550    0.96240    0.79310    1.000
    C609     C        0.72580    0.91370    0.79640    1.000
    C610     C        0.71320    0.89080    0.80990    1.000
    C611     C        0.66890    0.91580    0.81110    1.000
    C612     C        0.68150    0.93870    0.79760    1.000
    O130     O        0.74598    0.47043    0.28705    1.000
    F517     F        0.75230    0.41180    0.29080    1.000
    F518     F        0.72840    0.36720    0.31580    1.000
    F519     F        0.64120    0.41710    0.31710    1.000
    F520     F        0.66550    0.46240    0.29310    1.000
    C613     C        0.72580    0.41370    0.29640    1.000
    C614     C        0.71320    0.39080    0.30990    1.000
    C615     C        0.66890    0.41580    0.31110    1.000
    C616     C        0.68150    0.43870    0.29760    1.000
    O131     O        0.24598    0.97043    0.28705    1.000
    F521     F        0.25230    0.91180    0.29080    1.000
    F522     F        0.22840    0.86720    0.31580    1.000
    F523     F        0.14120    0.91710    0.31710    1.000
    F524     F        0.16550    0.96240    0.29310    1.000
    C617     C        0.22580    0.91370    0.29640    1.000
    C618     C        0.21320    0.89080    0.30990    1.000
    C619     C        0.16890    0.91580    0.31110    1.000
    C620     C        0.18150    0.93870    0.29760    1.000
    O132     O        0.24598    0.47043    0.78705    1.000
    F525     F        0.25230    0.41180    0.79080    1.000
    F526     F        0.22840    0.36720    0.81580    1.000
    F527     F        0.14120    0.41710    0.81710    1.000
    F528     F        0.16550    0.46240    0.79310    1.000
    C621     C        0.22580    0.41370    0.79640    1.000
    C622     C        0.21320    0.39080    0.80990    1.000
    C623     C        0.16890    0.41580    0.81110    1.000
    C624     C        0.18150    0.43870    0.79760    1.000
    O133     O        0.25402    0.97043    0.21295    1.000
    F529     F        0.24770    0.91180    0.20920    1.000
    F530     F        0.27160    0.86720    0.18420    1.000
    F531     F        0.35880    0.91710    0.18290    1.000
    F532     F        0.33450    0.96240    0.20690    1.000
    C625     C        0.27420    0.91370    0.20360    1.000
    C626     C        0.28680    0.89080    0.19010    1.000
    C627     C        0.33110    0.91580    0.18890    1.000
    C628     C        0.31850    0.93870    0.20240    1.000
    O134     O        0.25402    0.47043    0.71295    1.000
    F533     F        0.24770    0.41180    0.70920    1.000
    F534     F        0.27160    0.36720    0.68420    1.000
    F535     F        0.35880    0.41710    0.68290    1.000
    F536     F        0.33450    0.46240    0.70690    1.000
    C629     C        0.27420    0.41370    0.70360    1.000
    C630     C        0.28680    0.39080    0.69010    1.000
    C631     C        0.33110    0.41580    0.68890    1.000
    C632     C        0.31850    0.43870    0.70240    1.000
    O135     O        0.75402    0.97043    0.71295    1.000
    F537     F        0.74770    0.91180    0.70920    1.000
    F538     F        0.77160    0.86720    0.68420    1.000
    F539     F        0.85880    0.91710    0.68290    1.000
    F540     F        0.83450    0.96240    0.70690    1.000
    C633     C        0.77420    0.91370    0.70360    1.000
    C634     C        0.78680    0.89080    0.69010    1.000
    C635     C        0.83110    0.91580    0.68890    1.000
    C636     C        0.81850    0.93870    0.70240    1.000
    O136     O        0.75402    0.47043    0.21295    1.000
    F541     F        0.74770    0.41180    0.20920    1.000
    F542     F        0.77160    0.36720    0.18420    1.000
    F543     F        0.85880    0.41710    0.18290    1.000
    F544     F        0.83450    0.46240    0.20690    1.000
    C637     C        0.77420    0.41370    0.20360    1.000
    C638     C        0.78680    0.39080    0.19010    1.000
    C639     C        0.83110    0.41580    0.18890    1.000
    C640     C        0.81850    0.43870    0.20240    1.000
    O137     O        0.74598    0.02957    0.21295    1.000
    F545     F        0.75230    0.08820    0.20920    1.000
    F546     F        0.72840    0.13280    0.18420    1.000
    F547     F        0.64120    0.08290    0.18290    1.000
    F548     F        0.66550    0.03760    0.20690    1.000
    C641     C        0.72580    0.08630    0.20360    1.000
    C642     C        0.71320    0.10920    0.19010    1.000
    C643     C        0.66890    0.08420    0.18890    1.000
    C644     C        0.68150    0.06130    0.20240    1.000
    O138     O        0.74598    0.52957    0.71295    1.000
    F549     F        0.75230    0.58820    0.70920    1.000
    F550     F        0.72840    0.63280    0.68420    1.000
    F551     F        0.64120    0.58290    0.68290    1.000
    F552     F        0.66550    0.53760    0.70690    1.000
    C645     C        0.72580    0.58630    0.70360    1.000
    C646     C        0.71320    0.60920    0.69010    1.000
    C647     C        0.66890    0.58420    0.68890    1.000
    C648     C        0.68150    0.56130    0.70240    1.000
    O139     O        0.24598    0.02957    0.71295    1.000
    F553     F        0.25230    0.08820    0.70920    1.000
    F554     F        0.22840    0.13280    0.68420    1.000
    F555     F        0.14120    0.08290    0.68290    1.000
    F556     F        0.16550    0.03760    0.70690    1.000
    C649     C        0.22580    0.08630    0.70360    1.000
    C650     C        0.21320    0.10920    0.69010    1.000
    C651     C        0.16890    0.08420    0.68890    1.000
    C652     C        0.18150    0.06130    0.70240    1.000
    O140     O        0.24598    0.52957    0.21295    1.000
    F557     F        0.25230    0.58820    0.20920    1.000
    F558     F        0.22840    0.63280    0.18420    1.000
    F559     F        0.14120    0.58290    0.18290    1.000
    F560     F        0.16550    0.53760    0.20690    1.000
    C653     C        0.22580    0.58630    0.20360    1.000
    C654     C        0.21320    0.60920    0.19010    1.000
    C655     C        0.16890    0.58420    0.18890    1.000
    C656     C        0.18150    0.56130    0.20240    1.000
    O141     O        0.25402    0.02957    0.78705    1.000
    F561     F        0.24770    0.08820    0.79080    1.000
    F562     F        0.27160    0.13280    0.81580    1.000
    F563     F        0.35880    0.08290    0.81710    1.000
    F564     F        0.33450    0.03760    0.79310    1.000
    C657     C        0.27420    0.08630    0.79640    1.000
    C658     C        0.28680    0.10920    0.80990    1.000
    C659     C        0.33110    0.08420    0.81110    1.000
    C660     C        0.31850    0.06130    0.79760    1.000
    O142     O        0.25402    0.52957    0.28705    1.000
    F565     F        0.24770    0.58820    0.29080    1.000
    F566     F        0.27160    0.63280    0.31580    1.000
    F567     F        0.35880    0.58290    0.31710    1.000
    F568     F        0.33450    0.53760    0.29310    1.000
    C661     C        0.27420    0.58630    0.29640    1.000
    C662     C        0.28680    0.60920    0.30990    1.000
    C663     C        0.33110    0.58420    0.31110    1.000
    C664     C        0.31850    0.56130    0.29760    1.000
    O143     O        0.75402    0.02957    0.28705    1.000
    F569     F        0.74770    0.08820    0.29080    1.000
    F570     F        0.77160    0.13280    0.31580    1.000
    F571     F        0.85880    0.08290    0.31710    1.000
    F572     F        0.83450    0.03760    0.29310    1.000
    C665     C        0.77420    0.08630    0.29640    1.000
    C666     C        0.78680    0.10920    0.30990    1.000
    C667     C        0.83110    0.08420    0.31110    1.000
    C668     C        0.81850    0.06130    0.29760    1.000
    O144     O        0.75402    0.52957    0.78705    1.000
    F573     F        0.74770    0.58820    0.79080    1.000
    F574     F        0.77160    0.63280    0.81580    1.000
    F575     F        0.85880    0.58290    0.81710    1.000
    F576     F        0.83450    0.53760    0.79310    1.000
    C669     C        0.77420    0.58630    0.79640    1.000
    C670     C        0.78680    0.60920    0.80990    1.000
    C671     C        0.83110    0.58420    0.81110    1.000
    C672     C        0.81850    0.56130    0.79760    1.000
    O145     O        0.74598    0.78705    0.02957    1.000
    F577     F        0.75230    0.79080    0.08820    1.000
    F578     F        0.72840    0.81580    0.13280    1.000
    F579     F        0.64120    0.81710    0.08290    1.000
    F580     F        0.66550    0.79310    0.03760    1.000
    C673     C        0.72580    0.79640    0.08630    1.000
    C674     C        0.71320    0.80990    0.10920    1.000
    C675     C        0.66890    0.81110    0.08420    1.000
    C676     C        0.68150    0.79760    0.06130    1.000
    O146     O        0.74598    0.28705    0.52957    1.000
    F581     F        0.75230    0.29080    0.58820    1.000
    F582     F        0.72840    0.31580    0.63280    1.000
    F583     F        0.64120    0.31710    0.58290    1.000
    F584     F        0.66550    0.29310    0.53760    1.000
    C677     C        0.72580    0.29640    0.58630    1.000
    C678     C        0.71320    0.30990    0.60920    1.000
    C679     C        0.66890    0.31110    0.58420    1.000
    C680     C        0.68150    0.29760    0.56130    1.000
    O147     O        0.24598    0.78705    0.52957    1.000
    F585     F        0.25230    0.79080    0.58820    1.000
    F586     F        0.22840    0.81580    0.63280    1.000
    F587     F        0.14120    0.81710    0.58290    1.000
    F588     F        0.16550    0.79310    0.53760    1.000
    C681     C        0.22580    0.79640    0.58630    1.000
    C682     C        0.21320    0.80990    0.60920    1.000
    C683     C        0.16890    0.81110    0.58420    1.000
    C684     C        0.18150    0.79760    0.56130    1.000
    O148     O        0.24598    0.28705    0.02957    1.000
    F589     F        0.25230    0.29080    0.08820    1.000
    F590     F        0.22840    0.31580    0.13280    1.000
    F591     F        0.14120    0.31710    0.08290    1.000
    F592     F        0.16550    0.29310    0.03760    1.000
    C685     C        0.22580    0.29640    0.08630    1.000
    C686     C        0.21320    0.30990    0.10920    1.000
    C687     C        0.16890    0.31110    0.08420    1.000
    C688     C        0.18150    0.29760    0.06130    1.000
    O149     O        0.25402    0.21295    0.02957    1.000
    F593     F        0.24770    0.20920    0.08820    1.000
    F594     F        0.27160    0.18420    0.13280    1.000
    F595     F        0.35880    0.18290    0.08290    1.000
    F596     F        0.33450    0.20690    0.03760    1.000
    C689     C        0.27420    0.20360    0.08630    1.000
    C690     C        0.28680    0.19010    0.10920    1.000
    C691     C        0.33110    0.18890    0.08420    1.000
    C692     C        0.31850    0.20240    0.06130    1.000
    O150     O        0.25402    0.71295    0.52957    1.000
    F597     F        0.24770    0.70920    0.58820    1.000
    F598     F        0.27160    0.68420    0.63280    1.000
    F599     F        0.35880    0.68290    0.58290    1.000
    F600     F        0.33450    0.70690    0.53760    1.000
    C693     C        0.27420    0.70360    0.58630    1.000
    C694     C        0.28680    0.69010    0.60920    1.000
    C695     C        0.33110    0.68890    0.58420    1.000
    C696     C        0.31850    0.70240    0.56130    1.000
    O151     O        0.75402    0.21295    0.52957    1.000
    F601     F        0.74770    0.20920    0.58820    1.000
    F602     F        0.77160    0.18420    0.63280    1.000
    F603     F        0.85880    0.18290    0.58290    1.000
    F604     F        0.83450    0.20690    0.53760    1.000
    C697     C        0.77420    0.20360    0.58630    1.000
    C698     C        0.78680    0.19010    0.60920    1.000
    C699     C        0.83110    0.18890    0.58420    1.000
    C700     C        0.81850    0.20240    0.56130    1.000
    O152     O        0.75402    0.71295    0.02957    1.000
    F605     F        0.74770    0.70920    0.08820    1.000
    F606     F        0.77160    0.68420    0.13280    1.000
    F607     F        0.85880    0.68290    0.08290    1.000
    F608     F        0.83450    0.70690    0.03760    1.000
    C701     C        0.77420    0.70360    0.08630    1.000
    C702     C        0.78680    0.69010    0.10920    1.000
    C703     C        0.83110    0.68890    0.08420    1.000
    C704     C        0.81850    0.70240    0.06130    1.000
    O153     O        0.74598    0.21295    0.97043    1.000
    F609     F        0.75230    0.20920    0.91180    1.000
    F610     F        0.72840    0.18420    0.86720    1.000
    F611     F        0.64120    0.18290    0.91710    1.000
    F612     F        0.66550    0.20690    0.96240    1.000
    C705     C        0.72580    0.20360    0.91370    1.000
    C706     C        0.71320    0.19010    0.89080    1.000
    C707     C        0.66890    0.18890    0.91580    1.000
    C708     C        0.68150    0.20240    0.93870    1.000
    O154     O        0.74598    0.71295    0.47043    1.000
    F613     F        0.75230    0.70920    0.41180    1.000
    F614     F        0.72840    0.68420    0.36720    1.000
    F615     F        0.64120    0.68290    0.41710    1.000
    F616     F        0.66550    0.70690    0.46240    1.000
    C709     C        0.72580    0.70360    0.41370    1.000
    C710     C        0.71320    0.69010    0.39080    1.000
    C711     C        0.66890    0.68890    0.41580    1.000
    C712     C        0.68150    0.70240    0.43870    1.000
    O155     O        0.24598    0.21295    0.47043    1.000
    F617     F        0.25230    0.20920    0.41180    1.000
    F618     F        0.22840    0.18420    0.36720    1.000
    F619     F        0.14120    0.18290    0.41710    1.000
    F620     F        0.16550    0.20690    0.46240    1.000
    C713     C        0.22580    0.20360    0.41370    1.000
    C714     C        0.21320    0.19010    0.39080    1.000
    C715     C        0.16890    0.18890    0.41580    1.000
    C716     C        0.18150    0.20240    0.43870    1.000
    O156     O        0.24598    0.71295    0.97043    1.000
    F621     F        0.25230    0.70920    0.91180    1.000
    F622     F        0.22840    0.68420    0.86720    1.000
    F623     F        0.14120    0.68290    0.91710    1.000
    F624     F        0.16550    0.70690    0.96240    1.000
    C717     C        0.22580    0.70360    0.91370    1.000
    C718     C        0.21320    0.69010    0.89080    1.000
    C719     C        0.16890    0.68890    0.91580    1.000
    C720     C        0.18150    0.70240    0.93870    1.000
    O157     O        0.25402    0.78705    0.97043    1.000
    F625     F        0.24770    0.79080    0.91180    1.000
    F626     F        0.27160    0.81580    0.86720    1.000
    F627     F        0.35880    0.81710    0.91710    1.000
    F628     F        0.33450    0.79310    0.96240    1.000
    C721     C        0.27420    0.79640    0.91370    1.000
    C722     C        0.28680    0.80990    0.89080    1.000
    C723     C        0.33110    0.81110    0.91580    1.000
    C724     C        0.31850    0.79760    0.93870    1.000
    O158     O        0.25402    0.28705    0.47043    1.000
    F629     F        0.24770    0.29080    0.41180    1.000
    F630     F        0.27160    0.31580    0.36720    1.000
    F631     F        0.35880    0.31710    0.41710    1.000
    F632     F        0.33450    0.29310    0.46240    1.000
    C725     C        0.27420    0.29640    0.41370    1.000
    C726     C        0.28680    0.30990    0.39080    1.000
    C727     C        0.33110    0.31110    0.41580    1.000
    C728     C        0.31850    0.29760    0.43870    1.000
    O159     O        0.75402    0.78705    0.47043    1.000
    F633     F        0.74770    0.79080    0.41180    1.000
    F634     F        0.77160    0.81580    0.36720    1.000
    F635     F        0.85880    0.81710    0.41710    1.000
    F636     F        0.83450    0.79310    0.46240    1.000
    C729     C        0.77420    0.79640    0.41370    1.000
    C730     C        0.78680    0.80990    0.39080    1.000
    C731     C        0.83110    0.81110    0.41580    1.000
    C732     C        0.81850    0.79760    0.43870    1.000
    O160     O        0.75402    0.28705    0.97043    1.000
    F637     F        0.74770    0.29080    0.91180    1.000
    F638     F        0.77160    0.31580    0.86720    1.000
    F639     F        0.85880    0.31710    0.91710    1.000
    F640     F        0.83450    0.29310    0.96240    1.000
    C733     C        0.77420    0.29640    0.91370    1.000
    C734     C        0.78680    0.30990    0.89080    1.000
    C735     C        0.83110    0.31110    0.91580    1.000
    C736     C        0.81850    0.29760    0.93870    1.000
    O161     O        0.78705    0.97043    0.25402    1.000
    F641     F        0.79080    0.91180    0.24770    1.000
    F642     F        0.81580    0.86720    0.27160    1.000
    F643     F        0.81710    0.91710    0.35880    1.000
    F644     F        0.79310    0.96240    0.33450    1.000
    C737     C        0.79640    0.91370    0.27420    1.000
    C738     C        0.80990    0.89080    0.28680    1.000
    C739     C        0.81110    0.91580    0.33110    1.000
    C740     C        0.79760    0.93870    0.31850    1.000
    O162     O        0.78705    0.47043    0.75402    1.000
    F645     F        0.79080    0.41180    0.74770    1.000
    F646     F        0.81580    0.36720    0.77160    1.000
    F647     F        0.81710    0.41710    0.85880    1.000
    F648     F        0.79310    0.46240    0.83450    1.000
    C741     C        0.79640    0.41370    0.77420    1.000
    C742     C        0.80990    0.39080    0.78680    1.000
    C743     C        0.81110    0.41580    0.83110    1.000
    C744     C        0.79760    0.43870    0.81850    1.000
    O163     O        0.28705    0.97043    0.75402    1.000
    F649     F        0.29080    0.91180    0.74770    1.000
    F650     F        0.31580    0.86720    0.77160    1.000
    F651     F        0.31710    0.91710    0.85880    1.000
    F652     F        0.29310    0.96240    0.83450    1.000
    C745     C        0.29640    0.91370    0.77420    1.000
    C746     C        0.30990    0.89080    0.78680    1.000
    C747     C        0.31110    0.91580    0.83110    1.000
    C748     C        0.29760    0.93870    0.81850    1.000
    O164     O        0.28705    0.47043    0.25402    1.000
    F653     F        0.29080    0.41180    0.24770    1.000
    F654     F        0.31580    0.36720    0.27160    1.000
    F655     F        0.31710    0.41710    0.35880    1.000
    F656     F        0.29310    0.46240    0.33450    1.000
    C749     C        0.29640    0.41370    0.27420    1.000
    C750     C        0.30990    0.39080    0.28680    1.000
    C751     C        0.31110    0.41580    0.33110    1.000
    C752     C        0.29760    0.43870    0.31850    1.000
    O165     O        0.21295    0.97043    0.74598    1.000
    F657     F        0.20920    0.91180    0.75230    1.000
    F658     F        0.18420    0.86720    0.72840    1.000
    F659     F        0.18290    0.91710    0.64120    1.000
    F660     F        0.20690    0.96240    0.66550    1.000
    C753     C        0.20360    0.91370    0.72580    1.000
    C754     C        0.19010    0.89080    0.71320    1.000
    C755     C        0.18890    0.91580    0.66890    1.000
    C756     C        0.20240    0.93870    0.68150    1.000
    O166     O        0.21295    0.47043    0.24598    1.000
    F661     F        0.20920    0.41180    0.25230    1.000
    F662     F        0.18420    0.36720    0.22840    1.000
    F663     F        0.18290    0.41710    0.14120    1.000
    F664     F        0.20690    0.46240    0.16550    1.000
    C757     C        0.20360    0.41370    0.22580    1.000
    C758     C        0.19010    0.39080    0.21320    1.000
    C759     C        0.18890    0.41580    0.16890    1.000
    C760     C        0.20240    0.43870    0.18150    1.000
    O167     O        0.71295    0.97043    0.24598    1.000
    F665     F        0.70920    0.91180    0.25230    1.000
    F666     F        0.68420    0.86720    0.22840    1.000
    F667     F        0.68290    0.91710    0.14120    1.000
    F668     F        0.70690    0.96240    0.16550    1.000
    C761     C        0.70360    0.91370    0.22580    1.000
    C762     C        0.69010    0.89080    0.21320    1.000
    C763     C        0.68890    0.91580    0.16890    1.000
    C764     C        0.70240    0.93870    0.18150    1.000
    O168     O        0.71295    0.47043    0.74598    1.000
    F669     F        0.70920    0.41180    0.75230    1.000
    F670     F        0.68420    0.36720    0.72840    1.000
    F671     F        0.68290    0.41710    0.64120    1.000
    F672     F        0.70690    0.46240    0.66550    1.000
    C765     C        0.70360    0.41370    0.72580    1.000
    C766     C        0.69010    0.39080    0.71320    1.000
    C767     C        0.68890    0.41580    0.66890    1.000
    C768     C        0.70240    0.43870    0.68150    1.000
    O169     O        0.21295    0.02957    0.25402    1.000
    F673     F        0.20920    0.08820    0.24770    1.000
    F674     F        0.18420    0.13280    0.27160    1.000
    F675     F        0.18290    0.08290    0.35880    1.000
    F676     F        0.20690    0.03760    0.33450    1.000
    C769     C        0.20360    0.08630    0.27420    1.000
    C770     C        0.19010    0.10920    0.28680    1.000
    C771     C        0.18890    0.08420    0.33110    1.000
    C772     C        0.20240    0.06130    0.31850    1.000
    O170     O        0.21295    0.52957    0.75402    1.000
    F677     F        0.20920    0.58820    0.74770    1.000
    F678     F        0.18420    0.63280    0.77160    1.000
    F679     F        0.18290    0.58290    0.85880    1.000
    F680     F        0.20690    0.53760    0.83450    1.000
    C773     C        0.20360    0.58630    0.77420    1.000
    C774     C        0.19010    0.60920    0.78680    1.000
    C775     C        0.18890    0.58420    0.83110    1.000
    C776     C        0.20240    0.56130    0.81850    1.000
    O171     O        0.71295    0.02957    0.75402    1.000
    F681     F        0.70920    0.08820    0.74770    1.000
    F682     F        0.68420    0.13280    0.77160    1.000
    F683     F        0.68290    0.08290    0.85880    1.000
    F684     F        0.70690    0.03760    0.83450    1.000
    C777     C        0.70360    0.08630    0.77420    1.000
    C778     C        0.69010    0.10920    0.78680    1.000
    C779     C        0.68890    0.08420    0.83110    1.000
    C780     C        0.70240    0.06130    0.81850    1.000
    O172     O        0.71295    0.52957    0.25402    1.000
    F685     F        0.70920    0.58820    0.24770    1.000
    F686     F        0.68420    0.63280    0.27160    1.000
    F687     F        0.68290    0.58290    0.35880    1.000
    F688     F        0.70690    0.53760    0.33450    1.000
    C781     C        0.70360    0.58630    0.27420    1.000
    C782     C        0.69010    0.60920    0.28680    1.000
    C783     C        0.68890    0.58420    0.33110    1.000
    C784     C        0.70240    0.56130    0.31850    1.000
    O173     O        0.78705    0.02957    0.74598    1.000
    F689     F        0.79080    0.08820    0.75230    1.000
    F690     F        0.81580    0.13280    0.72840    1.000
    F691     F        0.81710    0.08290    0.64120    1.000
    F692     F        0.79310    0.03760    0.66550    1.000
    C785     C        0.79640    0.08630    0.72580    1.000
    C786     C        0.80990    0.10920    0.71320    1.000
    C787     C        0.81110    0.08420    0.66890    1.000
    C788     C        0.79760    0.06130    0.68150    1.000
    O174     O        0.78705    0.52957    0.24598    1.000
    F693     F        0.79080    0.58820    0.25230    1.000
    F694     F        0.81580    0.63280    0.22840    1.000
    F695     F        0.81710    0.58290    0.14120    1.000
    F696     F        0.79310    0.53760    0.16550    1.000
    C789     C        0.79640    0.58630    0.22580    1.000
    C790     C        0.80990    0.60920    0.21320    1.000
    C791     C        0.81110    0.58420    0.16890    1.000
    C792     C        0.79760    0.56130    0.18150    1.000
    O175     O        0.28705    0.02957    0.24598    1.000
    F697     F        0.29080    0.08820    0.25230    1.000
    F698     F        0.31580    0.13280    0.22840    1.000
    F699     F        0.31710    0.08290    0.14120    1.000
    F700     F        0.29310    0.03760    0.16550    1.000
    C793     C        0.29640    0.08630    0.22580    1.000
    C794     C        0.30990    0.10920    0.21320    1.000
    C795     C        0.31110    0.08420    0.16890    1.000
    C796     C        0.29760    0.06130    0.18150    1.000
    O176     O        0.28705    0.52957    0.74598    1.000
    F701     F        0.29080    0.58820    0.75230    1.000
    F702     F        0.31580    0.63280    0.72840    1.000
    F703     F        0.31710    0.58290    0.64120    1.000
    F704     F        0.29310    0.53760    0.66550    1.000
    C797     C        0.29640    0.58630    0.72580    1.000
    C798     C        0.30990    0.60920    0.71320    1.000
    C799     C        0.31110    0.58420    0.66890    1.000
    C800     C        0.29760    0.56130    0.68150    1.000
    O177     O        0.97043    0.74598    0.21295    1.000
    F705     F        0.91180    0.75230    0.20920    1.000
    F706     F        0.86720    0.72840    0.18420    1.000
    F707     F        0.91710    0.64120    0.18290    1.000
    F708     F        0.96240    0.66550    0.20690    1.000
    C801     C        0.91370    0.72580    0.20360    1.000
    C802     C        0.89080    0.71320    0.19010    1.000
    C803     C        0.91580    0.66890    0.18890    1.000
    C804     C        0.93870    0.68150    0.20240    1.000
    O178     O        0.97043    0.24598    0.71295    1.000
    F709     F        0.91180    0.25230    0.70920    1.000
    F710     F        0.86720    0.22840    0.68420    1.000
    F711     F        0.91710    0.14120    0.68290    1.000
    F712     F        0.96240    0.16550    0.70690    1.000
    C805     C        0.91370    0.22580    0.70360    1.000
    C806     C        0.89080    0.21320    0.69010    1.000
    C807     C        0.91580    0.16890    0.68890    1.000
    C808     C        0.93870    0.18150    0.70240    1.000
    O179     O        0.47043    0.74598    0.71295    1.000
    F713     F        0.41180    0.75230    0.70920    1.000
    F714     F        0.36720    0.72840    0.68420    1.000
    F715     F        0.41710    0.64120    0.68290    1.000
    F716     F        0.46240    0.66550    0.70690    1.000
    C809     C        0.41370    0.72580    0.70360    1.000
    C810     C        0.39080    0.71320    0.69010    1.000
    C811     C        0.41580    0.66890    0.68890    1.000
    C812     C        0.43870    0.68150    0.70240    1.000
    O180     O        0.47043    0.24598    0.21295    1.000
    F717     F        0.41180    0.25230    0.20920    1.000
    F718     F        0.36720    0.22840    0.18420    1.000
    F719     F        0.41710    0.14120    0.18290    1.000
    F720     F        0.46240    0.16550    0.20690    1.000
    C813     C        0.41370    0.22580    0.20360    1.000
    C814     C        0.39080    0.21320    0.19010    1.000
    C815     C        0.41580    0.16890    0.18890    1.000
    C816     C        0.43870    0.18150    0.20240    1.000
    O181     O        0.97043    0.25402    0.78705    1.000
    F721     F        0.91180    0.24770    0.79080    1.000
    F722     F        0.86720    0.27160    0.81580    1.000
    F723     F        0.91710    0.35880    0.81710    1.000
    F724     F        0.96240    0.33450    0.79310    1.000
    C817     C        0.91370    0.27420    0.79640    1.000
    C818     C        0.89080    0.28680    0.80990    1.000
    C819     C        0.91580    0.33110    0.81110    1.000
    C820     C        0.93870    0.31850    0.79760    1.000
    O182     O        0.97043    0.75402    0.28705    1.000
    F725     F        0.91180    0.74770    0.29080    1.000
    F726     F        0.86720    0.77160    0.31580    1.000
    F727     F        0.91710    0.85880    0.31710    1.000
    F728     F        0.96240    0.83450    0.29310    1.000
    C821     C        0.91370    0.77420    0.29640    1.000
    C822     C        0.89080    0.78680    0.30990    1.000
    C823     C        0.91580    0.83110    0.31110    1.000
    C824     C        0.93870    0.81850    0.29760    1.000
    O183     O        0.47043    0.25402    0.28705    1.000
    F729     F        0.41180    0.24770    0.29080    1.000
    F730     F        0.36720    0.27160    0.31580    1.000
    F731     F        0.41710    0.35880    0.31710    1.000
    F732     F        0.46240    0.33450    0.29310    1.000
    C825     C        0.41370    0.27420    0.29640    1.000
    C826     C        0.39080    0.28680    0.30990    1.000
    C827     C        0.41580    0.33110    0.31110    1.000
    C828     C        0.43870    0.31850    0.29760    1.000
    O184     O        0.47043    0.75402    0.78705    1.000
    F733     F        0.41180    0.74770    0.79080    1.000
    F734     F        0.36720    0.77160    0.81580    1.000
    F735     F        0.41710    0.85880    0.81710    1.000
    F736     F        0.46240    0.83450    0.79310    1.000
    C829     C        0.41370    0.77420    0.79640    1.000
    C830     C        0.39080    0.78680    0.80990    1.000
    C831     C        0.41580    0.83110    0.81110    1.000
    C832     C        0.43870    0.81850    0.79760    1.000
    O185     O        0.02957    0.74598    0.78705    1.000
    F737     F        0.08820    0.75230    0.79080    1.000
    F738     F        0.13280    0.72840    0.81580    1.000
    F739     F        0.08290    0.64120    0.81710    1.000
    F740     F        0.03760    0.66550    0.79310    1.000
    C833     C        0.08630    0.72580    0.79640    1.000
    C834     C        0.10920    0.71320    0.80990    1.000
    C835     C        0.08420    0.66890    0.81110    1.000
    C836     C        0.06130    0.68150    0.79760    1.000
    O186     O        0.02957    0.24598    0.28705    1.000
    F741     F        0.08820    0.25230    0.29080    1.000
    F742     F        0.13280    0.22840    0.31580    1.000
    F743     F        0.08290    0.14120    0.31710    1.000
    F744     F        0.03760    0.16550    0.29310    1.000
    C837     C        0.08630    0.22580    0.29640    1.000
    C838     C        0.10920    0.21320    0.30990    1.000
    C839     C        0.08420    0.16890    0.31110    1.000
    C840     C        0.06130    0.18150    0.29760    1.000
    O187     O        0.52957    0.74598    0.28705    1.000
    F745     F        0.58820    0.75230    0.29080    1.000
    F746     F        0.63280    0.72840    0.31580    1.000
    F747     F        0.58290    0.64120    0.31710    1.000
    F748     F        0.53760    0.66550    0.29310    1.000
    C841     C        0.58630    0.72580    0.29640    1.000
    C842     C        0.60920    0.71320    0.30990    1.000
    C843     C        0.58420    0.66890    0.31110    1.000
    C844     C        0.56130    0.68150    0.29760    1.000
    O188     O        0.52957    0.24598    0.78705    1.000
    F749     F        0.58820    0.25230    0.79080    1.000
    F750     F        0.63280    0.22840    0.81580    1.000
    F751     F        0.58290    0.14120    0.81710    1.000
    F752     F        0.53760    0.16550    0.79310    1.000
    C845     C        0.58630    0.22580    0.79640    1.000
    C846     C        0.60920    0.21320    0.80990    1.000
    C847     C        0.58420    0.16890    0.81110    1.000
    C848     C        0.56130    0.18150    0.79760    1.000
    O189     O        0.02957    0.25402    0.21295    1.000
    F753     F        0.08820    0.24770    0.20920    1.000
    F754     F        0.13280    0.27160    0.18420    1.000
    F755     F        0.08290    0.35880    0.18290    1.000
    F756     F        0.03760    0.33450    0.20690    1.000
    C849     C        0.08630    0.27420    0.20360    1.000
    C850     C        0.10920    0.28680    0.19010    1.000
    C851     C        0.08420    0.33110    0.18890    1.000
    C852     C        0.06130    0.31850    0.20240    1.000
    O190     O        0.02957    0.75402    0.71295    1.000
    F757     F        0.08820    0.74770    0.70920    1.000
    F758     F        0.13280    0.77160    0.68420    1.000
    F759     F        0.08290    0.85880    0.68290    1.000
    F760     F        0.03760    0.83450    0.70690    1.000
    C853     C        0.08630    0.77420    0.70360    1.000
    C854     C        0.10920    0.78680    0.69010    1.000
    C855     C        0.08420    0.83110    0.68890    1.000
    C856     C        0.06130    0.81850    0.70240    1.000
    O191     O        0.52957    0.25402    0.71295    1.000
    F761     F        0.58820    0.24770    0.70920    1.000
    F762     F        0.63280    0.27160    0.68420    1.000
    F763     F        0.58290    0.35880    0.68290    1.000
    F764     F        0.53760    0.33450    0.70690    1.000
    C857     C        0.58630    0.27420    0.70360    1.000
    C858     C        0.60920    0.28680    0.69010    1.000
    C859     C        0.58420    0.33110    0.68890    1.000
    C860     C        0.56130    0.31850    0.70240    1.000
    O192     O        0.52957    0.75402    0.21295    1.000
    F765     F        0.58820    0.74770    0.20920    1.000
    F766     F        0.63280    0.77160    0.18420    1.000
    F767     F        0.58290    0.85880    0.18290    1.000
    F768     F        0.53760    0.83450    0.20690    1.000
    C861     C        0.58630    0.77420    0.20360    1.000
    C862     C        0.60920    0.78680    0.19010    1.000
    C863     C        0.58420    0.83110    0.18890    1.000
    C864     C        0.56130    0.81850    0.20240    1.000
    Cu1      Cu       0.22988    0.22988    0.00000    1.000
    Cu2      Cu       0.22988    0.72988    0.50000    1.000
    Cu3      Cu       0.72988    0.22988    0.50000    1.000
    Cu4      Cu       0.72988    0.72988    0.00000    1.000
    Cu5      Cu       0.77012    0.77012    0.00000    1.000
    Cu6      Cu       0.77012    0.27012    0.50000    1.000
    Cu7      Cu       0.27012    0.77012    0.50000    1.000
    Cu8      Cu       0.27012    0.27012    0.00000    1.000
    Cu9      Cu       0.77012    0.22988    0.00000    1.000
    Cu10     Cu       0.77012    0.72988    0.50000    1.000
    Cu11     Cu       0.27012    0.22988    0.50000    1.000
    Cu12     Cu       0.27012    0.72988    0.00000    1.000
    Cu13     Cu       0.22988    0.77012    0.00000    1.000
    Cu14     Cu       0.22988    0.27012    0.50000    1.000
    Cu15     Cu       0.72988    0.77012    0.50000    1.000
    Cu16     Cu       0.72988    0.27012    0.00000    1.000
    Cu17     Cu       0.00000    0.22988    0.22988    1.000
    Cu18     Cu       0.00000    0.72988    0.72988    1.000
    Cu19     Cu       0.50000    0.22988    0.72988    1.000
    Cu20     Cu       0.50000    0.72988    0.22988    1.000
    Cu21     Cu       0.00000    0.77012    0.77012    1.000
    Cu22     Cu       0.00000    0.27012    0.27012    1.000
    Cu23     Cu       0.50000    0.77012    0.27012    1.000
    Cu24     Cu       0.50000    0.27012    0.77012    1.000
    Cu25     Cu       0.00000    0.77012    0.22988    1.000
    Cu26     Cu       0.00000    0.27012    0.72988    1.000
    Cu27     Cu       0.50000    0.77012    0.72988    1.000
    Cu28     Cu       0.50000    0.27012    0.22988    1.000
    Cu29     Cu       0.00000    0.22988    0.77012    1.000
    Cu30     Cu       0.00000    0.72988    0.27012    1.000
    Cu31     Cu       0.50000    0.22988    0.27012    1.000
    Cu32     Cu       0.50000    0.72988    0.77012    1.000
    Cu33     Cu       0.22988    0.00000    0.22988    1.000
    Cu34     Cu       0.22988    0.50000    0.72988    1.000
    Cu35     Cu       0.72988    0.00000    0.72988    1.000
    Cu36     Cu       0.72988    0.50000    0.22988    1.000
    Cu37     Cu       0.77012    0.00000    0.77012    1.000
    Cu38     Cu       0.77012    0.50000    0.27012    1.000
    Cu39     Cu       0.27012    0.00000    0.27012    1.000
    Cu40     Cu       0.27012    0.50000    0.77012    1.000
    Cu41     Cu       0.22988    0.00000    0.77012    1.000
    Cu42     Cu       0.22988    0.50000    0.27012    1.000
    Cu43     Cu       0.72988    0.00000    0.27012    1.000
    Cu44     Cu       0.72988    0.50000    0.77012    1.000
    Cu45     Cu       0.77012    0.00000    0.22988    1.000
    Cu46     Cu       0.77012    0.50000    0.72988    1.000
    Cu47     Cu       0.27012    0.00000    0.72988    1.000
    Cu48     Cu       0.27012    0.50000    0.22988    1.000
    C865     C        0.22496    0.27504    0.03820    1.000
    C866     C        0.20972    0.29028    0.06240    1.000
    C867     C        0.16911    0.33089    0.13330    1.000
    C868     C        0.22496    0.77504    0.53820    1.000
    C869     C        0.20972    0.79028    0.56240    1.000
    C870     C        0.16911    0.83089    0.63330    1.000
    C871     C        0.77504    0.72496    0.03820    1.000
    C872     C        0.79028    0.70972    0.06240    1.000
    C873     C        0.83089    0.66911    0.13330    1.000
    C874     C        0.77504    0.22496    0.53820    1.000
    C875     C        0.79028    0.20972    0.56240    1.000
    C876     C        0.83089    0.16911    0.63330    1.000
    C877     C        0.27504    0.22496    0.03820    1.000
    C878     C        0.29028    0.20972    0.06240    1.000
    C879     C        0.33089    0.16911    0.13330    1.000
    C880     C        0.77504    0.27504    0.96180    1.000
    C881     C        0.79028    0.29028    0.93760    1.000
    C882     C        0.83089    0.33089    0.86670    1.000
    C883     C        0.77504    0.77504    0.46180    1.000
    C884     C        0.79028    0.79028    0.43760    1.000
    C885     C        0.83089    0.83089    0.36670    1.000
    C886     C        0.27504    0.27504    0.46180    1.000
    C887     C        0.29028    0.29028    0.43760    1.000
    C888     C        0.33089    0.33089    0.36670    1.000
    C889     C        0.22496    0.72496    0.96180    1.000
    C890     C        0.20972    0.70972    0.93760    1.000
    C891     C        0.16911    0.66911    0.86670    1.000
    C892     C        0.22496    0.22496    0.46180    1.000
    C893     C        0.20972    0.20972    0.43760    1.000
    C894     C        0.16911    0.16911    0.36670    1.000
    C895     C        0.03820    0.22496    0.27504    1.000
    C896     C        0.06240    0.20972    0.29028    1.000
    C897     C        0.13330    0.16911    0.33089    1.000
    C898     C        0.53820    0.22496    0.77504    1.000
    C899     C        0.56240    0.20972    0.79028    1.000
    C900     C        0.63330    0.16911    0.83089    1.000
    C901     C        0.03820    0.77504    0.72496    1.000
    C902     C        0.06240    0.79028    0.70972    1.000
    C903     C        0.13330    0.83089    0.66911    1.000
    C904     C        0.03820    0.27504    0.22496    1.000
    C905     C        0.06240    0.29028    0.20972    1.000
    C906     C        0.13330    0.33089    0.16911    1.000
    C907     C        0.53820    0.77504    0.22496    1.000
    C908     C        0.56240    0.79028    0.20972    1.000
    C909     C        0.63330    0.83089    0.16911    1.000
    C910     C        0.96180    0.77504    0.27504    1.000
    C911     C        0.93760    0.79028    0.29028    1.000
    C912     C        0.86670    0.83089    0.33089    1.000
    C913     C        0.46180    0.77504    0.77504    1.000
    C914     C        0.43760    0.79028    0.79028    1.000
    C915     C        0.36670    0.83089    0.83089    1.000
    C916     C        0.46180    0.27504    0.27504    1.000
    C917     C        0.43760    0.29028    0.29028    1.000
    C918     C        0.36670    0.33089    0.33089    1.000
    C919     C        0.96180    0.22496    0.72496    1.000
    C920     C        0.93760    0.20972    0.70972    1.000
    C921     C        0.86670    0.16911    0.66911    1.000
    C922     C        0.46180    0.22496    0.22496    1.000
    C923     C        0.43760    0.20972    0.20972    1.000
    C924     C        0.36670    0.16911    0.16911    1.000
    C925     C        0.27504    0.03820    0.22496    1.000
    C926     C        0.29028    0.06240    0.20972    1.000
    C927     C        0.33089    0.13330    0.16911    1.000
    C928     C        0.27504    0.53820    0.72496    1.000
    C929     C        0.29028    0.56240    0.70972    1.000
    C930     C        0.33089    0.63330    0.66911    1.000
    C931     C        0.72496    0.03820    0.77504    1.000
    C932     C        0.70972    0.06240    0.79028    1.000
    C933     C        0.66911    0.13330    0.83089    1.000
    C934     C        0.72496    0.53820    0.27504    1.000
    C935     C        0.70972    0.56240    0.29028    1.000
    C936     C        0.66911    0.63330    0.33089    1.000
    C937     C        0.22496    0.03820    0.27504    1.000
    C938     C        0.20972    0.06240    0.29028    1.000
    C939     C        0.16911    0.13330    0.33089    1.000
    C940     C        0.27504    0.96180    0.77504    1.000
    C941     C        0.29028    0.93760    0.79028    1.000
    C942     C        0.33089    0.86670    0.83089    1.000
    C943     C        0.27504    0.46180    0.27504    1.000
    C944     C        0.29028    0.43760    0.29028    1.000
    C945     C        0.33089    0.36670    0.33089    1.000
    C946     C        0.72496    0.96180    0.22496    1.000
    C947     C        0.70972    0.93760    0.20972    1.000
    C948     C        0.66911    0.86670    0.16911    1.000
    C949     C        0.72496    0.46180    0.72496    1.000
    C950     C        0.70972    0.43760    0.70972    1.000
    C951     C        0.66911    0.36670    0.66911    1.000
    C952     C        0.22496    0.46180    0.22496    1.000
    C953     C        0.20972    0.43760    0.20972    1.000
    C954     C        0.16911    0.36670    0.16911    1.000
    C955     C        0.27504    0.22496    0.96180    1.000
    C956     C        0.29028    0.20972    0.93760    1.000
    C957     C        0.33089    0.16911    0.86670    1.000
    C958     C        0.27504    0.72496    0.46180    1.000
    C959     C        0.29028    0.70972    0.43760    1.000
    C960     C        0.33089    0.66911    0.36670    1.000
    C961     C        0.72496    0.77504    0.96180    1.000
    C962     C        0.70972    0.79028    0.93760    1.000
    C963     C        0.66911    0.83089    0.86670    1.000
    C964     C        0.72496    0.27504    0.46180    1.000
    C965     C        0.70972    0.29028    0.43760    1.000
    C966     C        0.66911    0.33089    0.36670    1.000
    C967     C        0.22496    0.27504    0.96180    1.000
    C968     C        0.20972    0.29028    0.93760    1.000
    C969     C        0.16911    0.33089    0.86670    1.000
    C970     C        0.27504    0.77504    0.03820    1.000
    C971     C        0.29028    0.79028    0.06240    1.000
    C972     C        0.33089    0.83089    0.13330    1.000
    C973     C        0.27504    0.27504    0.53820    1.000
    C974     C        0.29028    0.29028    0.56240    1.000
    C975     C        0.33089    0.33089    0.63330    1.000
    C976     C        0.72496    0.22496    0.03820    1.000
    C977     C        0.70972    0.20972    0.06240    1.000
    C978     C        0.66911    0.16911    0.13330    1.000
    C979     C        0.72496    0.72496    0.53820    1.000
    C980     C        0.70972    0.70972    0.56240    1.000
    C981     C        0.66911    0.66911    0.63330    1.000
    C982     C        0.22496    0.22496    0.53820    1.000
    C983     C        0.20972    0.20972    0.56240    1.000
    C984     C        0.16911    0.16911    0.63330    1.000
    C985     C        0.22496    0.03820    0.72496    1.000
    C986     C        0.20972    0.06240    0.70972    1.000
    C987     C        0.16911    0.13330    0.66911    1.000
    C988     C        0.22496    0.53820    0.22496    1.000
    C989     C        0.20972    0.56240    0.20972    1.000
    C990     C        0.16911    0.63330    0.16911    1.000
    C991     C        0.77504    0.03820    0.27504    1.000
    C992     C        0.79028    0.06240    0.29028    1.000
    C993     C        0.83089    0.13330    0.33089    1.000
    C994     C        0.77504    0.53820    0.77504    1.000
    C995     C        0.79028    0.56240    0.79028    1.000
    C996     C        0.83089    0.63330    0.83089    1.000
    C997     C        0.27504    0.53820    0.27504    1.000
    C998     C        0.29028    0.56240    0.29028    1.000
    C999     C        0.33089    0.63330    0.33089    1.000
    C1000    C        0.77504    0.96180    0.72496    1.000
    C1001    C        0.79028    0.93760    0.70972    1.000
    C1002    C        0.83089    0.86670    0.66911    1.000
    C1003    C        0.77504    0.46180    0.22496    1.000
    C1004    C        0.79028    0.43760    0.20972    1.000
    C1005    C        0.83089    0.36670    0.16911    1.000
    C1006    C        0.27504    0.96180    0.22496    1.000
    C1007    C        0.29028    0.93760    0.20972    1.000
    C1008    C        0.33089    0.86670    0.16911    1.000
    C1009    C        0.22496    0.96180    0.27504    1.000
    C1010    C        0.20972    0.93760    0.29028    1.000
    C1011    C        0.16911    0.86670    0.33089    1.000
    C1012    C        0.22496    0.46180    0.77504    1.000
    C1013    C        0.20972    0.43760    0.79028    1.000
    C1014    C        0.16911    0.36670    0.83089    1.000
    C1015    C        0.03820    0.27504    0.77504    1.000
    C1016    C        0.06240    0.29028    0.79028    1.000
    C1017    C        0.13330    0.33089    0.83089    1.000
    C1018    C        0.53820    0.27504    0.27504    1.000
    C1019    C        0.56240    0.29028    0.29028    1.000
    C1020    C        0.63330    0.33089    0.33089    1.000
    C1021    C        0.03820    0.72496    0.22496    1.000
    C1022    C        0.06240    0.70972    0.20972    1.000
    C1023    C        0.13330    0.66911    0.16911    1.000
    C1024    C        0.53820    0.72496    0.72496    1.000
    C1025    C        0.56240    0.70972    0.70972    1.000
    C1026    C        0.63330    0.66911    0.66911    1.000
    C1027    C        0.53820    0.22496    0.22496    1.000
    C1028    C        0.56240    0.20972    0.20972    1.000
    C1029    C        0.63330    0.16911    0.16911    1.000
    C1030    C        0.96180    0.27504    0.22496    1.000
    C1031    C        0.93760    0.29028    0.20972    1.000
    C1032    C        0.86670    0.33089    0.16911    1.000
    C1033    C        0.46180    0.27504    0.72496    1.000
    C1034    C        0.43760    0.29028    0.70972    1.000
    C1035    C        0.36670    0.33089    0.66911    1.000
    C1036    C        0.96180    0.72496    0.77504    1.000
    C1037    C        0.93760    0.70972    0.79028    1.000
    C1038    C        0.86670    0.66911    0.83089    1.000
    C1039    C        0.96180    0.22496    0.27504    1.000
    C1040    C        0.93760    0.20972    0.29028    1.000
    C1041    C        0.86670    0.16911    0.33089    1.000
    C1042    C        0.46180    0.72496    0.27504    1.000
    C1043    C        0.43760    0.70972    0.29028    1.000
    C1044    C        0.36670    0.66911    0.33089    1.000
    C1045    C        0.77504    0.72496    0.96180    1.000
    C1046    C        0.79028    0.70972    0.93760    1.000
    C1047    C        0.83089    0.66911    0.86670    1.000
    C1048    C        0.77504    0.22496    0.46180    1.000
    C1049    C        0.79028    0.20972    0.43760    1.000
    C1050    C        0.83089    0.16911    0.36670    1.000
    C1051    C        0.22496    0.77504    0.46180    1.000
    C1052    C        0.20972    0.79028    0.43760    1.000
    C1053    C        0.16911    0.83089    0.36670    1.000
    C1054    C        0.22496    0.72496    0.03820    1.000
    C1055    C        0.20972    0.70972    0.06240    1.000
    C1056    C        0.16911    0.66911    0.13330    1.000
    C1057    C        0.77504    0.27504    0.03820    1.000
    C1058    C        0.79028    0.29028    0.06240    1.000
    C1059    C        0.83089    0.33089    0.13330    1.000
    C1060    C        0.77504    0.77504    0.53820    1.000
    C1061    C        0.79028    0.79028    0.56240    1.000
    C1062    C        0.83089    0.83089    0.63330    1.000
    C1063    C        0.96180    0.77504    0.72496    1.000
    C1064    C        0.93760    0.79028    0.70972    1.000
    C1065    C        0.86670    0.83089    0.66911    1.000
    C1066    C        0.46180    0.77504    0.22496    1.000
    C1067    C        0.43760    0.79028    0.20972    1.000
    C1068    C        0.36670    0.83089    0.16911    1.000
    C1069    C        0.46180    0.22496    0.77504    1.000
    C1070    C        0.43760    0.20972    0.79028    1.000
    C1071    C        0.36670    0.16911    0.83089    1.000
    C1072    C        0.03820    0.22496    0.72496    1.000
    C1073    C        0.06240    0.20972    0.70972    1.000
    C1074    C        0.13330    0.16911    0.66911    1.000
    C1075    C        0.03820    0.77504    0.27504    1.000
    C1076    C        0.06240    0.79028    0.29028    1.000
    C1077    C        0.13330    0.83089    0.33089    1.000
    C1078    C        0.53820    0.77504    0.77504    1.000
    C1079    C        0.56240    0.79028    0.79028    1.000
    C1080    C        0.63330    0.83089    0.83089    1.000
    C1081    C        0.72496    0.96180    0.77504    1.000
    C1082    C        0.70972    0.93760    0.79028    1.000
    C1083    C        0.66911    0.86670    0.83089    1.000
    C1084    C        0.72496    0.46180    0.27504    1.000
    C1085    C        0.70972    0.43760    0.29028    1.000
    C1086    C        0.66911    0.36670    0.33089    1.000
    C1087    C        0.27504    0.46180    0.72496    1.000
    C1088    C        0.29028    0.43760    0.70972    1.000
    C1089    C        0.33089    0.36670    0.66911    1.000
    C1090    C        0.72496    0.03820    0.22496    1.000
    C1091    C        0.70972    0.06240    0.20972    1.000
    C1092    C        0.66911    0.13330    0.16911    1.000
    C1093    C        0.72496    0.53820    0.72496    1.000
    C1094    C        0.70972    0.56240    0.70972    1.000
    C1095    C        0.66911    0.63330    0.66911    1.000
    C1096    C        0.27504    0.03820    0.77504    1.000
    C1097    C        0.29028    0.06240    0.79028    1.000
    C1098    C        0.33089    0.13330    0.83089    1.000
    C1099    C        0.72496    0.77504    0.03820    1.000
    C1100    C        0.70972    0.79028    0.06240    1.000
    C1101    C        0.66911    0.83089    0.13330    1.000
    C1102    C        0.72496    0.27504    0.53820    1.000
    C1103    C        0.70972    0.29028    0.56240    1.000
    C1104    C        0.66911    0.33089    0.63330    1.000
    C1105    C        0.27504    0.72496    0.53820    1.000
    C1106    C        0.29028    0.70972    0.56240    1.000
    C1107    C        0.33089    0.66911    0.63330    1.000
    C1108    C        0.72496    0.22496    0.96180    1.000
    C1109    C        0.70972    0.20972    0.93760    1.000
    C1110    C        0.66911    0.16911    0.86670    1.000
    C1111    C        0.72496    0.72496    0.46180    1.000
    C1112    C        0.70972    0.70972    0.43760    1.000
    C1113    C        0.66911    0.66911    0.36670    1.000
    C1114    C        0.27504    0.77504    0.96180    1.000
    C1115    C        0.29028    0.79028    0.93760    1.000
    C1116    C        0.33089    0.83089    0.86670    1.000
    C1117    C        0.77504    0.96180    0.27504    1.000
    C1118    C        0.79028    0.93760    0.29028    1.000
    C1119    C        0.83089    0.86670    0.33089    1.000
    C1120    C        0.77504    0.46180    0.77504    1.000
    C1121    C        0.79028    0.43760    0.79028    1.000
    C1122    C        0.83089    0.36670    0.83089    1.000
    C1123    C        0.22496    0.96180    0.72496    1.000
    C1124    C        0.20972    0.93760    0.70972    1.000
    C1125    C        0.16911    0.86670    0.66911    1.000
    C1126    C        0.22496    0.53820    0.77504    1.000
    C1127    C        0.20972    0.56240    0.79028    1.000
    C1128    C        0.16911    0.63330    0.83089    1.000
    C1129    C        0.77504    0.03820    0.72496    1.000
    C1130    C        0.79028    0.06240    0.70972    1.000
    C1131    C        0.83089    0.13330    0.66911    1.000
    C1132    C        0.77504    0.53820    0.22496    1.000
    C1133    C        0.79028    0.56240    0.20972    1.000
    C1134    C        0.83089    0.63330    0.16911    1.000
    C1135    C        0.96180    0.72496    0.22496    1.000
    C1136    C        0.93760    0.70972    0.20972    1.000
    C1137    C        0.86670    0.66911    0.16911    1.000
    C1138    C        0.46180    0.72496    0.72496    1.000
    C1139    C        0.43760    0.70972    0.70972    1.000
    C1140    C        0.36670    0.66911    0.66911    1.000
    C1141    C        0.96180    0.27504    0.77504    1.000
    C1142    C        0.93760    0.29028    0.79028    1.000
    C1143    C        0.86670    0.33089    0.83089    1.000
    C1144    C        0.03820    0.72496    0.77504    1.000
    C1145    C        0.06240    0.70972    0.79028    1.000
    C1146    C        0.13330    0.66911    0.83089    1.000
    C1147    C        0.53820    0.72496    0.27504    1.000
    C1148    C        0.56240    0.70972    0.29028    1.000
    C1149    C        0.63330    0.66911    0.33089    1.000
    C1150    C        0.53820    0.27504    0.72496    1.000
    C1151    C        0.56240    0.29028    0.70972    1.000
    C1152    C        0.63330    0.33089    0.66911    1.000
    C1153    C        0.14548    0.31940    0.14548    1.000
    H1       H        0.13750    0.30330    0.13750    1.000
    C1154    C        0.14548    0.81940    0.64548    1.000
    H2       H        0.13750    0.80330    0.63750    1.000
    C1155    C        0.64548    0.31940    0.64548    1.000
    H3       H        0.63750    0.30330    0.63750    1.000
    C1156    C        0.64548    0.81940    0.14548    1.000
    H4       H        0.63750    0.80330    0.13750    1.000
    C1157    C        0.85452    0.68060    0.14548    1.000
    H5       H        0.86250    0.69670    0.13750    1.000
    C1158    C        0.85452    0.18060    0.64548    1.000
    H6       H        0.86250    0.19670    0.63750    1.000
    C1159    C        0.35452    0.68060    0.64548    1.000
    H7       H        0.36250    0.69670    0.63750    1.000
    C1160    C        0.35452    0.18060    0.14548    1.000
    H8       H        0.36250    0.19670    0.13750    1.000
    C1161    C        0.85452    0.31940    0.85452    1.000
    H9       H        0.86250    0.30330    0.86250    1.000
    C1162    C        0.85452    0.81940    0.35452    1.000
    H10      H        0.86250    0.80330    0.36250    1.000
    C1163    C        0.35452    0.31940    0.35452    1.000
    H11      H        0.36250    0.30330    0.36250    1.000
    C1164    C        0.35452    0.81940    0.85452    1.000
    H12      H        0.36250    0.80330    0.86250    1.000
    C1165    C        0.14548    0.68060    0.85452    1.000
    H13      H        0.13750    0.69670    0.86250    1.000
    C1166    C        0.14548    0.18060    0.35452    1.000
    H14      H        0.13750    0.19670    0.36250    1.000
    C1167    C        0.64548    0.68060    0.35452    1.000
    H15      H        0.63750    0.69670    0.36250    1.000
    C1168    C        0.64548    0.18060    0.85452    1.000
    H16      H        0.63750    0.19670    0.86250    1.000
    C1169    C        0.14548    0.14548    0.31940    1.000
    H17      H        0.13750    0.13750    0.30330    1.000
    C1170    C        0.14548    0.64548    0.81940    1.000
    H18      H        0.13750    0.63750    0.80330    1.000
    C1171    C        0.64548    0.14548    0.81940    1.000
    H19      H        0.63750    0.13750    0.80330    1.000
    C1172    C        0.64548    0.64548    0.31940    1.000
    H20      H        0.63750    0.63750    0.30330    1.000
    C1173    C        0.14548    0.85452    0.68060    1.000
    H21      H        0.13750    0.86250    0.69670    1.000
    C1174    C        0.14548    0.35452    0.18060    1.000
    H22      H        0.13750    0.36250    0.19670    1.000
    C1175    C        0.64548    0.85452    0.18060    1.000
    H23      H        0.63750    0.86250    0.19670    1.000
    C1176    C        0.64548    0.35452    0.68060    1.000
    H24      H        0.63750    0.36250    0.69670    1.000
    C1177    C        0.85452    0.85452    0.31940    1.000
    H25      H        0.86250    0.86250    0.30330    1.000
    C1178    C        0.85452    0.35452    0.81940    1.000
    H26      H        0.86250    0.36250    0.80330    1.000
    C1179    C        0.35452    0.85452    0.81940    1.000
    H27      H        0.36250    0.86250    0.80330    1.000
    C1180    C        0.35452    0.35452    0.31940    1.000
    H28      H        0.36250    0.36250    0.30330    1.000
    C1181    C        0.85452    0.14548    0.68060    1.000
    H29      H        0.86250    0.13750    0.69670    1.000
    C1182    C        0.85452    0.64548    0.18060    1.000
    H30      H        0.86250    0.63750    0.19670    1.000
    C1183    C        0.35452    0.14548    0.18060    1.000
    H31      H        0.36250    0.13750    0.19670    1.000
    C1184    C        0.35452    0.64548    0.68060    1.000
    H32      H        0.36250    0.63750    0.69670    1.000
    C1185    C        0.31940    0.14548    0.14548    1.000
    H33      H        0.30330    0.13750    0.13750    1.000
    C1186    C        0.31940    0.64548    0.64548    1.000
    H34      H        0.30330    0.63750    0.63750    1.000
    C1187    C        0.81940    0.14548    0.64548    1.000
    H35      H        0.80330    0.13750    0.63750    1.000
    C1188    C        0.81940    0.64548    0.14548    1.000
    H36      H        0.80330    0.63750    0.13750    1.000
    C1189    C        0.68060    0.14548    0.85452    1.000
    H37      H        0.69670    0.13750    0.86250    1.000
    C1190    C        0.68060    0.64548    0.35452    1.000
    H38      H        0.69670    0.63750    0.36250    1.000
    C1191    C        0.18060    0.14548    0.35452    1.000
    H39      H        0.19670    0.13750    0.36250    1.000
    C1192    C        0.18060    0.64548    0.85452    1.000
    H40      H        0.19670    0.63750    0.86250    1.000
    C1193    C        0.31940    0.85452    0.85452    1.000
    H41      H        0.30330    0.86250    0.86250    1.000
    C1194    C        0.31940    0.35452    0.35452    1.000
    H42      H        0.30330    0.36250    0.36250    1.000
    C1195    C        0.81940    0.85452    0.35452    1.000
    H43      H        0.80330    0.86250    0.36250    1.000
    C1196    C        0.81940    0.35452    0.85452    1.000
    H44      H        0.80330    0.36250    0.86250    1.000
    C1197    C        0.68060    0.85452    0.14548    1.000
    H45      H        0.69670    0.86250    0.13750    1.000
    C1198    C        0.68060    0.35452    0.64548    1.000
    H46      H        0.69670    0.36250    0.63750    1.000
    C1199    C        0.18060    0.85452    0.64548    1.000
    H47      H        0.19670    0.86250    0.63750    1.000
    C1200    C        0.18060    0.35452    0.14548    1.000
    H48      H        0.19670    0.36250    0.13750    1.000
    C1201    C        0.31940    0.14548    0.85452    1.000
    H49      H        0.30330    0.13750    0.86250    1.000
    C1202    C        0.31940    0.64548    0.35452    1.000
    H50      H        0.30330    0.63750    0.36250    1.000
    C1203    C        0.81940    0.14548    0.35452    1.000
    H51      H        0.80330    0.13750    0.36250    1.000
    C1204    C        0.81940    0.64548    0.85452    1.000
    H52      H        0.80330    0.63750    0.86250    1.000
    C1205    C        0.68060    0.85452    0.85452    1.000
    H53      H        0.69670    0.86250    0.86250    1.000
    C1206    C        0.68060    0.35452    0.35452    1.000
    H54      H        0.69670    0.36250    0.36250    1.000
    C1207    C        0.18060    0.85452    0.35452    1.000
    H55      H        0.19670    0.86250    0.36250    1.000
    C1208    C        0.18060    0.35452    0.85452    1.000
    H56      H        0.19670    0.36250    0.86250    1.000
    C1209    C        0.31940    0.85452    0.14548    1.000
    H57      H        0.30330    0.86250    0.13750    1.000
    C1210    C        0.31940    0.35452    0.64548    1.000
    H58      H        0.30330    0.36250    0.63750    1.000
    C1211    C        0.81940    0.85452    0.64548    1.000
    H59      H        0.80330    0.86250    0.63750    1.000
    C1212    C        0.81940    0.35452    0.14548    1.000
    H60      H        0.80330    0.36250    0.13750    1.000
    C1213    C        0.68060    0.14548    0.14548    1.000
    H61      H        0.69670    0.13750    0.13750    1.000
    C1214    C        0.68060    0.64548    0.64548    1.000
    H62      H        0.69670    0.63750    0.63750    1.000
    C1215    C        0.18060    0.14548    0.64548    1.000
    H63      H        0.19670    0.13750    0.63750    1.000
    C1216    C        0.18060    0.64548    0.14548    1.000
    H64      H        0.19670    0.63750    0.13750    1.000
    C1217    C        0.14548    0.14548    0.68060    1.000
    H65      H        0.13750    0.13750    0.69670    1.000
    C1218    C        0.14548    0.64548    0.18060    1.000
    H66      H        0.13750    0.63750    0.19670    1.000
    C1219    C        0.64548    0.14548    0.18060    1.000
    H67      H        0.63750    0.13750    0.19670    1.000
    C1220    C        0.64548    0.64548    0.68060    1.000
    H68      H        0.63750    0.63750    0.69670    1.000
    C1221    C        0.85452    0.14548    0.31940    1.000
    H69      H        0.86250    0.13750    0.30330    1.000
    C1222    C        0.85452    0.64548    0.81940    1.000
    H70      H        0.86250    0.63750    0.80330    1.000
    C1223    C        0.35452    0.14548    0.81940    1.000
    H71      H        0.36250    0.13750    0.80330    1.000
    C1224    C        0.35452    0.64548    0.31940    1.000
    H72      H        0.36250    0.63750    0.30330    1.000
    C1225    C        0.85452    0.85452    0.68060    1.000
    H73      H        0.86250    0.86250    0.69670    1.000
    C1226    C        0.85452    0.35452    0.18060    1.000
    H74      H        0.86250    0.36250    0.19670    1.000
    C1227    C        0.35452    0.85452    0.18060    1.000
    H75      H        0.36250    0.86250    0.19670    1.000
    C1228    C        0.35452    0.35452    0.68060    1.000
    H76      H        0.36250    0.36250    0.69670    1.000
    C1229    C        0.14548    0.85452    0.31940    1.000
    H77      H        0.13750    0.86250    0.30330    1.000
    C1230    C        0.14548    0.35452    0.81940    1.000
    H78      H        0.13750    0.36250    0.80330    1.000
    C1231    C        0.64548    0.85452    0.81940    1.000
    H79      H        0.63750    0.86250    0.80330    1.000
    C1232    C        0.64548    0.35452    0.31940    1.000
    H80      H        0.63750    0.36250    0.30330    1.000
    C1233    C        0.14548    0.31940    0.85452    1.000
    H81      H        0.13750    0.30330    0.86250    1.000
    C1234    C        0.14548    0.81940    0.35452    1.000
    H82      H        0.13750    0.80330    0.36250    1.000
    C1235    C        0.64548    0.31940    0.35452    1.000
    H83      H        0.63750    0.30330    0.36250    1.000
    C1236    C        0.64548    0.81940    0.85452    1.000
    H84      H        0.63750    0.80330    0.86250    1.000
    C1237    C        0.14548    0.68060    0.14548    1.000
    H85      H        0.13750    0.69670    0.13750    1.000
    C1238    C        0.14548    0.18060    0.64548    1.000
    H86      H        0.13750    0.19670    0.63750    1.000
    C1239    C        0.64548    0.68060    0.64548    1.000
    H87      H        0.63750    0.69670    0.63750    1.000
    C1240    C        0.64548    0.18060    0.14548    1.000
    H88      H        0.63750    0.19670    0.13750    1.000
    C1241    C        0.85452    0.31940    0.14548    1.000
    H89      H        0.86250    0.30330    0.13750    1.000
    C1242    C        0.85452    0.81940    0.64548    1.000
    H90      H        0.86250    0.80330    0.63750    1.000
    C1243    C        0.35452    0.31940    0.64548    1.000
    H91      H        0.36250    0.30330    0.63750    1.000
    C1244    C        0.35452    0.81940    0.14548    1.000
    H92      H        0.36250    0.80330    0.13750    1.000
    C1245    C        0.85452    0.68060    0.85452    1.000
    H93      H        0.86250    0.69670    0.86250    1.000
    C1246    C        0.85452    0.18060    0.35452    1.000
    H94      H        0.86250    0.19670    0.36250    1.000
    C1247    C        0.35452    0.68060    0.35452    1.000
    H95      H        0.36250    0.69670    0.36250    1.000
    C1248    C        0.35452    0.18060    0.85452    1.000
    H96      H        0.36250    0.19670    0.86250    1.000
