# CIF file generated by openbabel 3.1.0, see https://openbabel.org
data_I
_chemical_name_common 'CUMDOE_clean'
_cell_length_a 5.754
_cell_length_b 14.1259
_cell_length_c 21.156
_cell_angle_alpha 90
_cell_angle_beta 90.14
_cell_angle_gamma 90
_space_group_name_H-M_alt 'P 1'
_space_group_name_Hall 'P 1'
loop_
    _symmetry_equiv_pos_as_xyz
    x,y,z
loop_
    _atom_site_label
    _atom_site_type_symbol
    _atom_site_fract_x
    _atom_site_fract_y
    _atom_site_fract_z
    _atom_site_occupancy
    Nd1      Nd       0.74999    0.89020    0.98319    1.000
    Nd2      Nd       0.25001    0.39020    0.51681    1.000
    Nd3      Nd       0.25001    0.10980    0.01681    1.000
    Nd4      Nd       0.74999    0.60980    0.48319    1.000
    P1       P        0.75010    0.15660    0.94580    1.000
    P2       P        0.75040    0.44850    0.61250    1.000
    P3       P        0.24990    0.65660    0.55420    1.000
    P4       P        0.24960    0.94850    0.88750    1.000
    P5       P        0.24990    0.84340    0.05420    1.000
    P6       P        0.24960    0.55150    0.38750    1.000
    P7       P        0.75010    0.34340    0.44580    1.000
    P8       P        0.75040    0.05150    0.11250    1.000
    H1       H        0.92310    0.20340    0.74140    1.000
    H2       H        0.67750    0.15070    0.74390    1.000
    H3       H        0.48030    0.29190    0.72480    1.000
    H4       H        0.67480    0.27980    0.67140    1.000
    H5       H        0.85350    0.45640    0.81270    1.000
    H6       H        0.59680    0.41390    0.81880    1.000
    H7       H        0.82410    0.32770    0.88680    1.000
    H8       H        0.02240    0.31360    0.83490    1.000
    H9       H        0.61760    0.10920    0.85090    1.000
    H10      H        0.89320    0.11130    0.85170    1.000
    H11      H        0.61350    0.49580    0.70960    1.000
    H12      H        0.88940    0.49570    0.70960    1.000
    H13      H        0.07690    0.70340    0.75860    1.000
    H14      H        0.32250    0.65070    0.75610    1.000
    H15      H        0.51970    0.79190    0.77520    1.000
    H16      H        0.32520    0.77980    0.82860    1.000
    H17      H        0.14650    0.95640    0.68730    1.000
    H18      H        0.40320    0.91390    0.68120    1.000
    H19      H        0.17590    0.82770    0.61320    1.000
    H20      H        0.97760    0.81360    0.66510    1.000
    H21      H        0.38240    0.60920    0.64910    1.000
    H22      H        0.10680    0.61130    0.64830    1.000
    H23      H        0.38650    0.99580    0.79040    1.000
    H24      H        0.11060    0.99570    0.79040    1.000
    H25      H        0.07690    0.79660    0.25860    1.000
    H26      H        0.32250    0.84930    0.25610    1.000
    H27      H        0.51970    0.70810    0.27520    1.000
    H28      H        0.32520    0.72020    0.32860    1.000
    H29      H        0.14650    0.54360    0.18730    1.000
    H30      H        0.40320    0.58610    0.18120    1.000
    H31      H        0.17590    0.67230    0.11320    1.000
    H32      H        0.97760    0.68640    0.16510    1.000
    H33      H        0.38240    0.89080    0.14910    1.000
    H34      H        0.10680    0.88870    0.14830    1.000
    H35      H        0.38650    0.50420    0.29040    1.000
    H36      H        0.11060    0.50430    0.29040    1.000
    H37      H        0.92310    0.29660    0.24140    1.000
    H38      H        0.67750    0.34930    0.24390    1.000
    H39      H        0.48030    0.20810    0.22480    1.000
    H40      H        0.67480    0.22020    0.17140    1.000
    H41      H        0.85350    0.04360    0.31270    1.000
    H42      H        0.59680    0.08610    0.31880    1.000
    H43      H        0.82410    0.17230    0.38680    1.000
    H44      H        0.02240    0.18640    0.33490    1.000
    H45      H        0.61760    0.39080    0.35090    1.000
    H46      H        0.89320    0.38870    0.35170    1.000
    H47      H        0.61350    0.00420    0.20960    1.000
    H48      H        0.88940    0.00430    0.20960    1.000
    C1       C        0.75900    0.21000    0.75450    1.000
    C2       C        0.65000    0.29070    0.71710    1.000
    C3       C        0.75600    0.40000    0.80410    1.000
    C4       C        0.85200    0.31650    0.84120    1.000
    C5       C        0.75300    0.14850    0.86280    1.000
    C6       C        0.75100    0.45770    0.69790    1.000
    C7       C        0.24100    0.71000    0.74550    1.000
    C8       C        0.35000    0.79070    0.78290    1.000
    C9       C        0.24400    0.90000    0.69590    1.000
    C10      C        0.14800    0.81650    0.65880    1.000
    C11      C        0.24700    0.64850    0.63720    1.000
    C12      C        0.24900    0.95770    0.80210    1.000
    C13      C        0.24100    0.79000    0.24550    1.000
    C14      C        0.35000    0.70930    0.28290    1.000
    C15      C        0.24400    0.60000    0.19590    1.000
    C16      C        0.14800    0.68350    0.15880    1.000
    C17      C        0.24700    0.85150    0.13720    1.000
    C18      C        0.24900    0.54230    0.30210    1.000
    C19      C        0.75900    0.29000    0.25450    1.000
    C20      C        0.65000    0.20930    0.21710    1.000
    C21      C        0.75600    0.10000    0.30410    1.000
    C22      C        0.85200    0.18350    0.34120    1.000
    C23      C        0.75300    0.35150    0.36280    1.000
    C24      C        0.75100    0.04230    0.19790    1.000
    N1       N        0.75100    0.22410    0.82380    1.000
    N2       N        0.75200    0.38220    0.73520    1.000
    N3       N        0.24900    0.72410    0.67620    1.000
    N4       N        0.24800    0.88220    0.76480    1.000
    N5       N        0.24900    0.77590    0.17620    1.000
    N6       N        0.24800    0.61780    0.26480    1.000
    N7       N        0.75100    0.27590    0.32380    1.000
    N8       N        0.75200    0.11780    0.23520    1.000
    O1       O        0.75100    0.05710    0.97050    1.000
    O2       O        0.53100    0.20750    0.96560    1.000
    O3       O        0.96700    0.20910    0.96520    1.000
    O4       O        0.53000    0.39490    0.59720    1.000
    O5       O        0.74900    0.54730    0.58770    1.000
    O6       O        0.96900    0.39450    0.59700    1.000
    O7       O        0.24900    0.55710    0.52950    1.000
    O8       O        0.46900    0.70750    0.53440    1.000
    O9       O        0.03300    0.70910    0.53480    1.000
    O10      O        0.47000    0.89490    0.90280    1.000
    O11      O        0.25100    0.04730    0.91230    1.000
    O12      O        0.03100    0.89450    0.90300    1.000
    O13      O        0.24900    0.94290    0.02950    1.000
    O14      O        0.46900    0.79250    0.03440    1.000
    O15      O        0.03300    0.79090    0.03480    1.000
    O16      O        0.47000    0.60510    0.40280    1.000
    O17      O        0.25100    0.45270    0.41230    1.000
    O18      O        0.03100    0.60550    0.40300    1.000
    O19      O        0.75100    0.44290    0.47050    1.000
    O20      O        0.53100    0.29250    0.46560    1.000
    O21      O        0.96700    0.29090    0.46520    1.000
    O22      O        0.53000    0.10510    0.09720    1.000
    O23      O        0.74900    0.95270    0.08770    1.000
    O24      O        0.96900    0.10550    0.09700    1.000
