# CIF file generated by openbabel 3.1.0, see https://openbabel.org
data_I
_chemical_name_common 'image0'
_cell_length_a 7.7895
_cell_length_b 8.0754
_cell_length_c 9.7286
_cell_angle_alpha 75.902
_cell_angle_beta 79.142
_cell_angle_gamma 86.695
_space_group_name_H-M_alt 'P 1'
_space_group_name_Hall 'P 1'
loop_
    _symmetry_equiv_pos_as_xyz
    x,y,z
loop_
    _atom_site_label
    _atom_site_type_symbol
    _atom_site_fract_x
    _atom_site_fract_y
    _atom_site_fract_z
    _atom_site_occupancy
    Mn1      Mn       0.65797    0.46703    0.25269    1.000
    Mn2      Mn       0.32238    0.19107    0.37035    1.000
    P1       P        0.57321    0.23023    0.59513    1.000
    O1       O        0.52290    0.29590    0.44580    1.000
    O2       O        0.46470    0.31390    0.70560    1.000
    O3       O        0.56030    0.03980    0.64510    1.000
    O4       O        0.77210    0.27600    0.57720    1.000
    H1       H        0.77920    0.36010    0.60900    1.000
    O5       O        0.84550    0.25670    0.22170    1.000
    O6       O        0.08870    0.14030    0.29180    1.000
    O7       O        0.91120    0.54790    0.28530    1.000
    O8       O        0.16010    0.43570    0.35010    1.000
    O9       O        0.46740    0.34730    0.16350    1.000
    O10      O        0.31310    0.40170    0.98440    1.000
    C1       C        0.98200    0.26110    0.26910    1.000
    C2       C        0.02120    0.43010    0.30550    1.000
    C3       C        0.43380    0.42730    0.04200    1.000
    Mn3      Mn       0.34203    0.53297    0.74731    1.000
    Mn4      Mn       0.67762    0.80893    0.62965    1.000
    P2       P        0.42679    0.76977    0.40487    1.000
    O11      O        0.47710    0.70410    0.55420    1.000
    O12      O        0.53530    0.68610    0.29440    1.000
    O13      O        0.43970    0.96020    0.35490    1.000
    O14      O        0.22790    0.72400    0.42280    1.000
    H2       H        0.22080    0.63990    0.39100    1.000
    O15      O        0.15450    0.74330    0.77830    1.000
    O16      O        0.91130    0.85970    0.70820    1.000
    O17      O        0.08880    0.45210    0.71470    1.000
    O18      O        0.83990    0.56430    0.64990    1.000
    O19      O        0.53260    0.65270    0.83650    1.000
    O20      O        0.68690    0.59830    0.01560    1.000
    C4       C        0.01800    0.73890    0.73090    1.000
    C5       C        0.97880    0.56990    0.69450    1.000
    C6       C        0.56620    0.57270    0.95800    1.000
