# CIF file generated by openbabel 3.1.0, see https://openbabel.org
data_I
_chemical_name_common 'image0'
_cell_length_a 14.9
_cell_length_b 24.324
_cell_length_c 16.253
_cell_angle_alpha 90
_cell_angle_beta 113.233
_cell_angle_gamma 90
_space_group_name_H-M_alt 'P 1'
_space_group_name_Hall 'P 1'
loop_
    _symmetry_equiv_pos_as_xyz
    x,y,z
loop_
    _atom_site_label
    _atom_site_type_symbol
    _atom_site_fract_x
    _atom_site_fract_y
    _atom_site_fract_z
    _atom_site_occupancy
    Zn1      Zn       0.41865    0.01345    0.63776    1.000
    O1       O        0.40480    0.67991    0.63140    1.000
    O2       O        0.47680    0.93832    0.64290    1.000
    O3       O        0.32990    0.93768    0.64470    1.000
    O4       O        0.03430    0.55834    0.64610    1.000
    O5       O        0.13750    0.55509    0.79040    1.000
    N1       N        0.33200    0.02875    0.50670    1.000
    N2       N        0.08870    0.00793    0.18840    1.000
    C1       C        0.40360    0.85070    0.64310    1.000
    C2       C        0.47700    0.82236    0.62860    1.000
    H1       H        0.52850    0.84230    0.62180    1.000
    C3       C        0.47620    0.76564    0.62410    1.000
    H2       H        0.52590    0.74650    0.61290    1.000
    C4       C        0.40120    0.73683    0.63630    1.000
    C5       C        0.32700    0.76447    0.65110    1.000
    H3       H        0.27600    0.74460    0.65880    1.000
    C6       C        0.32880    0.82176    0.65440    1.000
    H4       H        0.27870    0.84110    0.66450    1.000
    C7       C        0.40220    0.91173    0.64420    1.000
    C8       C        0.33400    0.65159    0.65100    1.000
    C9       C        0.35270    0.63714    0.73910    1.000
    H5       H        0.41310    0.64640    0.78610    1.000
    C10      C        0.28200    0.60922    0.75680    1.000
    H6       H        0.29460    0.59810    0.81640    1.000
    C11      C        0.19180    0.59701    0.68840    1.000
    C12      C        0.17520    0.61039    0.60050    1.000
    H7       H        0.11510    0.60080    0.55330    1.000
    C13      C        0.24660    0.63780    0.58180    1.000
    H8       H        0.23570    0.64710    0.52180    1.000
    C14      C        0.11530    0.56779    0.71020    1.000
    C15      C        0.36900    0.04884    0.44980    1.000
    H9       H        0.43470    0.06140    0.47410    1.000
    C16      C        0.31850    0.05240    0.35950    1.000
    H10      H        0.34850    0.06690    0.32230    1.000
    C17      C        0.22210    0.03434    0.32300    1.000
    C18      C        0.18120    0.01413    0.37980    1.000
    H11      H        0.11540    0.00170    0.35660    1.000
    C19      C        0.23710    0.01222    0.47070    1.000
    H12      H        0.20820    0.99890    0.50950    1.000
    C20      C        0.16980    0.03223    0.22390    1.000
    H13      H        0.19770    0.04940    0.18700    1.000
    C21      C        0.04490    0.00599    0.09320    1.000
    C22      C        0.00020    0.95569    0.05410    1.000
    H14      H        0.00020    0.92560    0.09140    1.000
    C23      C        0.04340    0.04976    0.03820    1.000
    H15      H        0.07250    0.08370    0.06390    1.000
    Zn2      Zn       0.91865    0.51345    0.63776    1.000
    O6       O        0.90480    0.17991    0.63140    1.000
    O7       O        0.97680    0.43832    0.64290    1.000
    O8       O        0.82990    0.43768    0.64470    1.000
    O9       O        0.53430    0.05834    0.64610    1.000
    O10      O        0.63750    0.05509    0.79040    1.000
    N3       N        0.83200    0.52875    0.50670    1.000
    N4       N        0.58870    0.50793    0.18840    1.000
    C24      C        0.90360    0.35070    0.64310    1.000
    C25      C        0.97700    0.32236    0.62860    1.000
    H16      H        0.02850    0.34230    0.62180    1.000
    C26      C        0.97620    0.26564    0.62410    1.000
    H17      H        0.02590    0.24650    0.61290    1.000
    C27      C        0.90120    0.23683    0.63630    1.000
    C28      C        0.82700    0.26447    0.65110    1.000
    H18      H        0.77600    0.24460    0.65880    1.000
    C29      C        0.82880    0.32176    0.65440    1.000
    H19      H        0.77870    0.34110    0.66450    1.000
    C30      C        0.90220    0.41173    0.64420    1.000
    C31      C        0.83400    0.15159    0.65100    1.000
    C32      C        0.85270    0.13714    0.73910    1.000
    H20      H        0.91310    0.14640    0.78610    1.000
    C33      C        0.78200    0.10922    0.75680    1.000
    H21      H        0.79460    0.09810    0.81640    1.000
    C34      C        0.69180    0.09701    0.68840    1.000
    C35      C        0.67520    0.11039    0.60050    1.000
    H22      H        0.61510    0.10080    0.55330    1.000
    C36      C        0.74660    0.13780    0.58180    1.000
    H23      H        0.73570    0.14710    0.52180    1.000
    C37      C        0.61530    0.06779    0.71020    1.000
    C38      C        0.86900    0.54884    0.44980    1.000
    H24      H        0.93470    0.56140    0.47410    1.000
    C39      C        0.81850    0.55240    0.35950    1.000
    H25      H        0.84850    0.56690    0.32230    1.000
    C40      C        0.72210    0.53434    0.32300    1.000
    C41      C        0.68120    0.51413    0.37980    1.000
    H26      H        0.61540    0.50170    0.35660    1.000
    C42      C        0.73710    0.51222    0.47070    1.000
    H27      H        0.70820    0.49890    0.50950    1.000
    C43      C        0.66980    0.53223    0.22390    1.000
    H28      H        0.69770    0.54940    0.18700    1.000
    C44      C        0.54490    0.50599    0.09320    1.000
    C45      C        0.50020    0.45569    0.05410    1.000
    H29      H        0.50020    0.42560    0.09140    1.000
    C46      C        0.54340    0.54976    0.03820    1.000
    H30      H        0.57250    0.58370    0.06390    1.000
    Zn3      Zn       0.58135    0.01345    0.86224    1.000
    O11      O        0.59520    0.67991    0.86860    1.000
    O12      O        0.52320    0.93832    0.85710    1.000
    O13      O        0.67010    0.93768    0.85530    1.000
    O14      O        0.96570    0.55834    0.85390    1.000
    O15      O        0.86250    0.55509    0.70960    1.000
    N5       N        0.66800    0.02875    0.99330    1.000
    N6       N        0.91130    0.00793    0.31160    1.000
    C47      C        0.59640    0.85070    0.85690    1.000
    C48      C        0.52300    0.82236    0.87140    1.000
    H31      H        0.47150    0.84230    0.87820    1.000
    C49      C        0.52380    0.76564    0.87590    1.000
    H32      H        0.47410    0.74650    0.88710    1.000
    C50      C        0.59880    0.73683    0.86370    1.000
    C51      C        0.67300    0.76447    0.84890    1.000
    H33      H        0.72400    0.74460    0.84120    1.000
    C52      C        0.67120    0.82176    0.84560    1.000
    H34      H        0.72130    0.84110    0.83550    1.000
    C53      C        0.59780    0.91173    0.85580    1.000
    C54      C        0.66600    0.65159    0.84900    1.000
    C55      C        0.64730    0.63714    0.76090    1.000
    H35      H        0.58690    0.64640    0.71390    1.000
    C56      C        0.71800    0.60922    0.74320    1.000
    H36      H        0.70540    0.59810    0.68360    1.000
    C57      C        0.80820    0.59701    0.81160    1.000
    C58      C        0.82480    0.61039    0.89950    1.000
    H37      H        0.88490    0.60080    0.94670    1.000
    C59      C        0.75340    0.63780    0.91820    1.000
    H38      H        0.76430    0.64710    0.97820    1.000
    C60      C        0.88470    0.56779    0.78980    1.000
    C61      C        0.63100    0.04884    0.05020    1.000
    H39      H        0.56530    0.06140    0.02590    1.000
    C62      C        0.68150    0.05240    0.14050    1.000
    H40      H        0.65150    0.06690    0.17770    1.000
    C63      C        0.77790    0.03434    0.17700    1.000
    C64      C        0.81880    0.01413    0.12020    1.000
    H41      H        0.88460    0.00170    0.14340    1.000
    C65      C        0.76290    0.01222    0.02930    1.000
    H42      H        0.79180    0.99890    0.99050    1.000
    C66      C        0.83020    0.03223    0.27610    1.000
    H43      H        0.80230    0.04940    0.31300    1.000
    C67      C        0.95510    0.00599    0.40680    1.000
    C68      C        0.99980    0.95569    0.44590    1.000
    H44      H        0.99980    0.92560    0.40860    1.000
    C69      C        0.95660    0.04976    0.46180    1.000
    H45      H        0.92750    0.08370    0.43610    1.000
    Zn4      Zn       0.08135    0.51345    0.86224    1.000
    O16      O        0.09520    0.17991    0.86860    1.000
    O17      O        0.02320    0.43832    0.85710    1.000
    O18      O        0.17010    0.43768    0.85530    1.000
    O19      O        0.46570    0.05834    0.85390    1.000
    O20      O        0.36250    0.05509    0.70960    1.000
    N7       N        0.16800    0.52875    0.99330    1.000
    N8       N        0.41130    0.50793    0.31160    1.000
    C70      C        0.09640    0.35070    0.85690    1.000
    C71      C        0.02300    0.32236    0.87140    1.000
    H46      H        0.97150    0.34230    0.87820    1.000
    C72      C        0.02380    0.26564    0.87590    1.000
    H47      H        0.97410    0.24650    0.88710    1.000
    C73      C        0.09880    0.23683    0.86370    1.000
    C74      C        0.17300    0.26447    0.84890    1.000
    H48      H        0.22400    0.24460    0.84120    1.000
    C75      C        0.17120    0.32176    0.84560    1.000
    H49      H        0.22130    0.34110    0.83550    1.000
    C76      C        0.09780    0.41173    0.85580    1.000
    C77      C        0.16600    0.15159    0.84900    1.000
    C78      C        0.14730    0.13714    0.76090    1.000
    H50      H        0.08690    0.14640    0.71390    1.000
    C79      C        0.21800    0.10922    0.74320    1.000
    H51      H        0.20540    0.09810    0.68360    1.000
    C80      C        0.30820    0.09701    0.81160    1.000
    C81      C        0.32480    0.11039    0.89950    1.000
    H52      H        0.38490    0.10080    0.94670    1.000
    C82      C        0.25340    0.13780    0.91820    1.000
    H53      H        0.26430    0.14710    0.97820    1.000
    C83      C        0.38470    0.06779    0.78980    1.000
    C84      C        0.13100    0.54884    0.05020    1.000
    H54      H        0.06530    0.56140    0.02590    1.000
    C85      C        0.18150    0.55240    0.14050    1.000
    H55      H        0.15150    0.56690    0.17770    1.000
    C86      C        0.27790    0.53434    0.17700    1.000
    C87      C        0.31880    0.51413    0.12020    1.000
    H56      H        0.38460    0.50170    0.14340    1.000
    C88      C        0.26290    0.51222    0.02930    1.000
    H57      H        0.29180    0.49890    0.99050    1.000
    C89      C        0.33020    0.53223    0.27610    1.000
    H58      H        0.30230    0.54940    0.31300    1.000
    C90      C        0.45510    0.50599    0.40680    1.000
    C91      C        0.49980    0.45569    0.44590    1.000
    H59      H        0.49980    0.42560    0.40860    1.000
    C92      C        0.45660    0.54976    0.46180    1.000
    H60      H        0.42750    0.58370    0.43610    1.000
    Zn5      Zn       0.58135    0.98655    0.36224    1.000
    O21      O        0.59520    0.32009    0.36860    1.000
    O22      O        0.52320    0.06168    0.35710    1.000
    O23      O        0.67010    0.06232    0.35530    1.000
    O24      O        0.96570    0.44166    0.35390    1.000
    O25      O        0.86250    0.44491    0.20960    1.000
    N9       N        0.66800    0.97125    0.49330    1.000
    N10      N        0.91130    0.99207    0.81160    1.000
    C93      C        0.59640    0.14930    0.35690    1.000
    C94      C        0.52300    0.17764    0.37140    1.000
    H61      H        0.47150    0.15770    0.37820    1.000
    C95      C        0.52380    0.23436    0.37590    1.000
    H62      H        0.47410    0.25350    0.38710    1.000
    C96      C        0.59880    0.26317    0.36370    1.000
    C97      C        0.67300    0.23553    0.34890    1.000
    H63      H        0.72400    0.25540    0.34120    1.000
    C98      C        0.67120    0.17824    0.34560    1.000
    H64      H        0.72130    0.15890    0.33550    1.000
    C99      C        0.59780    0.08827    0.35580    1.000
    C100     C        0.66600    0.34841    0.34900    1.000
    C101     C        0.64730    0.36286    0.26090    1.000
    H65      H        0.58690    0.35360    0.21390    1.000
    C102     C        0.71800    0.39078    0.24320    1.000
    H66      H        0.70540    0.40190    0.18360    1.000
    C103     C        0.80820    0.40299    0.31160    1.000
    C104     C        0.82480    0.38961    0.39950    1.000
    H67      H        0.88490    0.39920    0.44670    1.000
    C105     C        0.75340    0.36220    0.41820    1.000
    H68      H        0.76430    0.35290    0.47820    1.000
    C106     C        0.88470    0.43221    0.28980    1.000
    C107     C        0.63100    0.95116    0.55020    1.000
    H69      H        0.56530    0.93860    0.52590    1.000
    C108     C        0.68150    0.94760    0.64050    1.000
    H70      H        0.65150    0.93310    0.67770    1.000
    C109     C        0.77790    0.96566    0.67700    1.000
    C110     C        0.81880    0.98587    0.62020    1.000
    H71      H        0.88460    0.99830    0.64340    1.000
    C111     C        0.76290    0.98778    0.52930    1.000
    H72      H        0.79180    0.00110    0.49050    1.000
    C112     C        0.83020    0.96777    0.77610    1.000
    H73      H        0.80230    0.95060    0.81300    1.000
    C113     C        0.95510    0.99401    0.90680    1.000
    C114     C        0.99980    0.04431    0.94590    1.000
    H74      H        0.99980    0.07440    0.90860    1.000
    C115     C        0.95660    0.95024    0.96180    1.000
    H75      H        0.92750    0.91630    0.93610    1.000
    Zn6      Zn       0.08135    0.48655    0.36224    1.000
    O26      O        0.09520    0.82009    0.36860    1.000
    O27      O        0.02320    0.56168    0.35710    1.000
    O28      O        0.17010    0.56232    0.35530    1.000
    O29      O        0.46570    0.94166    0.35390    1.000
    O30      O        0.36250    0.94491    0.20960    1.000
    N11      N        0.16800    0.47125    0.49330    1.000
    N12      N        0.41130    0.49207    0.81160    1.000
    C116     C        0.09640    0.64930    0.35690    1.000
    C117     C        0.02300    0.67764    0.37140    1.000
    H76      H        0.97150    0.65770    0.37820    1.000
    C118     C        0.02380    0.73436    0.37590    1.000
    H77      H        0.97410    0.75350    0.38710    1.000
    C119     C        0.09880    0.76317    0.36370    1.000
    C120     C        0.17300    0.73553    0.34890    1.000
    H78      H        0.22400    0.75540    0.34120    1.000
    C121     C        0.17120    0.67824    0.34560    1.000
    H79      H        0.22130    0.65890    0.33550    1.000
    C122     C        0.09780    0.58827    0.35580    1.000
    C123     C        0.16600    0.84841    0.34900    1.000
    C124     C        0.14730    0.86286    0.26090    1.000
    H80      H        0.08690    0.85360    0.21390    1.000
    C125     C        0.21800    0.89078    0.24320    1.000
    H81      H        0.20540    0.90190    0.18360    1.000
    C126     C        0.30820    0.90299    0.31160    1.000
    C127     C        0.32480    0.88961    0.39950    1.000
    H82      H        0.38490    0.89920    0.44670    1.000
    C128     C        0.25340    0.86220    0.41820    1.000
    H83      H        0.26430    0.85290    0.47820    1.000
    C129     C        0.38470    0.93221    0.28980    1.000
    C130     C        0.13100    0.45116    0.55020    1.000
    H84      H        0.06530    0.43860    0.52590    1.000
    C131     C        0.18150    0.44760    0.64050    1.000
    H85      H        0.15150    0.43310    0.67770    1.000
    C132     C        0.27790    0.46566    0.67700    1.000
    C133     C        0.31880    0.48587    0.62020    1.000
    H86      H        0.38460    0.49830    0.64340    1.000
    C134     C        0.26290    0.48778    0.52930    1.000
    H87      H        0.29180    0.50110    0.49050    1.000
    C135     C        0.33020    0.46777    0.77610    1.000
    H88      H        0.30230    0.45060    0.81300    1.000
    C136     C        0.45510    0.49401    0.90680    1.000
    C137     C        0.49980    0.54431    0.94590    1.000
    H89      H        0.49980    0.57440    0.90860    1.000
    C138     C        0.45660    0.45024    0.96180    1.000
    H90      H        0.42750    0.41630    0.93610    1.000
    Zn7      Zn       0.41865    0.98655    0.13776    1.000
    O31      O        0.40480    0.32009    0.13140    1.000
    O32      O        0.47680    0.06168    0.14290    1.000
    O33      O        0.32990    0.06232    0.14470    1.000
    O34      O        0.03430    0.44166    0.14610    1.000
    O35      O        0.13750    0.44491    0.29040    1.000
    N13      N        0.33200    0.97125    0.00670    1.000
    N14      N        0.08870    0.99207    0.68840    1.000
    C139     C        0.40360    0.14930    0.14310    1.000
    C140     C        0.47700    0.17764    0.12860    1.000
    H91      H        0.52850    0.15770    0.12180    1.000
    C141     C        0.47620    0.23436    0.12410    1.000
    H92      H        0.52590    0.25350    0.11290    1.000
    C142     C        0.40120    0.26317    0.13630    1.000
    C143     C        0.32700    0.23553    0.15110    1.000
    H93      H        0.27600    0.25540    0.15880    1.000
    C144     C        0.32880    0.17824    0.15440    1.000
    H94      H        0.27870    0.15890    0.16450    1.000
    C145     C        0.40220    0.08827    0.14420    1.000
    C146     C        0.33400    0.34841    0.15100    1.000
    C147     C        0.35270    0.36286    0.23910    1.000
    H95      H        0.41310    0.35360    0.28610    1.000
    C148     C        0.28200    0.39078    0.25680    1.000
    H96      H        0.29460    0.40190    0.31640    1.000
    C149     C        0.19180    0.40299    0.18840    1.000
    C150     C        0.17520    0.38961    0.10050    1.000
    H97      H        0.11510    0.39920    0.05330    1.000
    C151     C        0.24660    0.36220    0.08180    1.000
    H98      H        0.23570    0.35290    0.02180    1.000
    C152     C        0.11530    0.43221    0.21020    1.000
    C153     C        0.36900    0.95116    0.94980    1.000
    H99      H        0.43470    0.93860    0.97410    1.000
    C154     C        0.31850    0.94760    0.85950    1.000
    H100     H        0.34850    0.93310    0.82230    1.000
    C155     C        0.22210    0.96566    0.82300    1.000
    C156     C        0.18120    0.98587    0.87980    1.000
    H101     H        0.11540    0.99830    0.85660    1.000
    C157     C        0.23710    0.98778    0.97070    1.000
    H102     H        0.20820    0.00110    0.00950    1.000
    C158     C        0.16980    0.96777    0.72390    1.000
    H103     H        0.19770    0.95060    0.68700    1.000
    C159     C        0.04490    0.99401    0.59320    1.000
    C160     C        0.00020    0.04431    0.55410    1.000
    H104     H        0.00020    0.07440    0.59140    1.000
    C161     C        0.04340    0.95024    0.53820    1.000
    H105     H        0.07250    0.91630    0.56390    1.000
    Zn8      Zn       0.91865    0.48655    0.13776    1.000
    O36      O        0.90480    0.82009    0.13140    1.000
    O37      O        0.97680    0.56168    0.14290    1.000
    O38      O        0.82990    0.56232    0.14470    1.000
    O39      O        0.53430    0.94166    0.14610    1.000
    O40      O        0.63750    0.94491    0.29040    1.000
    N15      N        0.83200    0.47125    0.00670    1.000
    N16      N        0.58870    0.49207    0.68840    1.000
    C162     C        0.90360    0.64930    0.14310    1.000
    C163     C        0.97700    0.67764    0.12860    1.000
    H106     H        0.02850    0.65770    0.12180    1.000
    C164     C        0.97620    0.73436    0.12410    1.000
    H107     H        0.02590    0.75350    0.11290    1.000
    C165     C        0.90120    0.76317    0.13630    1.000
    C166     C        0.82700    0.73553    0.15110    1.000
    H108     H        0.77600    0.75540    0.15880    1.000
    C167     C        0.82880    0.67824    0.15440    1.000
    H109     H        0.77870    0.65890    0.16450    1.000
    C168     C        0.90220    0.58827    0.14420    1.000
    C169     C        0.83400    0.84841    0.15100    1.000
    C170     C        0.85270    0.86286    0.23910    1.000
    H110     H        0.91310    0.85360    0.28610    1.000
    C171     C        0.78200    0.89078    0.25680    1.000
    H111     H        0.79460    0.90190    0.31640    1.000
    C172     C        0.69180    0.90299    0.18840    1.000
    C173     C        0.67520    0.88961    0.10050    1.000
    H112     H        0.61510    0.89920    0.05330    1.000
    C174     C        0.74660    0.86220    0.08180    1.000
    H113     H        0.73570    0.85290    0.02180    1.000
    C175     C        0.61530    0.93221    0.21020    1.000
    C176     C        0.86900    0.45116    0.94980    1.000
    H114     H        0.93470    0.43860    0.97410    1.000
    C177     C        0.81850    0.44760    0.85950    1.000
    H115     H        0.84850    0.43310    0.82230    1.000
    C178     C        0.72210    0.46566    0.82300    1.000
    C179     C        0.68120    0.48587    0.87980    1.000
    H116     H        0.61540    0.49830    0.85660    1.000
    C180     C        0.73710    0.48778    0.97070    1.000
    H117     H        0.70820    0.50110    0.00950    1.000
    C181     C        0.66980    0.46777    0.72390    1.000
    H118     H        0.69770    0.45060    0.68700    1.000
    C182     C        0.54490    0.49401    0.59320    1.000
    C183     C        0.50020    0.54431    0.55410    1.000
    H119     H        0.50020    0.57440    0.59140    1.000
    C184     C        0.54340    0.45024    0.53820    1.000
    H120     H        0.57250    0.41630    0.56390    1.000
