# CIF file generated by openbabel 3.1.0, see https://openbabel.org
data_I
_chemical_name_common 'image0'
_cell_length_a 36.417
_cell_length_b 9.831
_cell_length_c 10.995
_cell_angle_alpha 90
_cell_angle_beta 106.189
_cell_angle_gamma 90
_space_group_name_H-M_alt 'P 1'
_space_group_name_Hall 'P 1'
loop_
    _symmetry_equiv_pos_as_xyz
    x,y,z
loop_
    _atom_site_label
    _atom_site_type_symbol
    _atom_site_fract_x
    _atom_site_fract_y
    _atom_site_fract_z
    _atom_site_occupancy
    Cd1      Cd       0.21025    0.66823    0.36660    1.000
    O1       O        0.15334    0.69730    0.20340    1.000
    C1       C        0.02060    0.51510    0.03560    1.000
    C2       C        0.13757    0.59430    0.23500    1.000
    C3       C        0.09750    0.56220    0.16380    1.000
    C4       C        0.04150    0.61190    0.99490    1.000
    H1       H        0.02990    0.66250    0.92300    1.000
    C5       C        0.07890    0.63600    0.05700    1.000
    H2       H        0.09210    0.70320    0.02720    1.000
    C6       C        0.07710    0.46670    0.20540    1.000
    H3       H        0.08860    0.41690    0.27800    1.000
    N1       N        0.23620    0.56830    0.55550    1.000
    C7       C        0.03940    0.44290    0.14070    1.000
    H4       H        0.02630    0.37480    0.16970    1.000
    C8       C        0.22233    0.46540    0.60520    1.000
    O2       O        0.15402    0.52290    0.32350    1.000
    N2       N        0.23355    0.46560    0.73220    1.000
    N3       N        0.25814    0.64120    0.65700    1.000
    C9       C        0.25539    0.57900    0.75810    1.000
    H5       H        0.26720    0.60910    0.83980    1.000
    N4       N        0.20000    0.36520    0.53610    1.000
    H6       H        0.19420    0.36700    0.45470    1.000
    H7       H        0.19170    0.30040    0.57390    1.000
    Cd2      Cd       0.71025    0.16823    0.36660    1.000
    O3       O        0.65334    0.19730    0.20340    1.000
    C10      C        0.52060    0.01510    0.03560    1.000
    C11      C        0.63757    0.09430    0.23500    1.000
    C12      C        0.59750    0.06220    0.16380    1.000
    C13      C        0.54150    0.11190    0.99490    1.000
    H8       H        0.52990    0.16250    0.92300    1.000
    C14      C        0.57890    0.13600    0.05700    1.000
    H9       H        0.59210    0.20320    0.02720    1.000
    C15      C        0.57710    0.96670    0.20540    1.000
    H10      H        0.58860    0.91690    0.27800    1.000
    N5       N        0.73620    0.06830    0.55550    1.000
    C16      C        0.53940    0.94290    0.14070    1.000
    H11      H        0.52630    0.87480    0.16970    1.000
    C17      C        0.72233    0.96540    0.60520    1.000
    O4       O        0.65402    0.02290    0.32350    1.000
    N6       N        0.73355    0.96560    0.73220    1.000
    N7       N        0.75814    0.14120    0.65700    1.000
    C18      C        0.75539    0.07900    0.75810    1.000
    H12      H        0.76720    0.10910    0.83980    1.000
    N8       N        0.70000    0.86520    0.53610    1.000
    H13      H        0.69420    0.86700    0.45470    1.000
    H14      H        0.69170    0.80040    0.57390    1.000
    Cd3      Cd       0.78975    0.66823    0.13340    1.000
    O5       O        0.84666    0.69730    0.29660    1.000
    C19      C        0.97940    0.51510    0.46440    1.000
    C20      C        0.86243    0.59430    0.26500    1.000
    C21      C        0.90250    0.56220    0.33620    1.000
    C22      C        0.95850    0.61190    0.50510    1.000
    H15      H        0.97010    0.66250    0.57700    1.000
    C23      C        0.92110    0.63600    0.44300    1.000
    H16      H        0.90790    0.70320    0.47280    1.000
    C24      C        0.92290    0.46670    0.29460    1.000
    H17      H        0.91140    0.41690    0.22200    1.000
    N9       N        0.76380    0.56830    0.94450    1.000
    C25      C        0.96060    0.44290    0.35930    1.000
    H18      H        0.97370    0.37480    0.33030    1.000
    C26      C        0.77767    0.46540    0.89480    1.000
    O6       O        0.84598    0.52290    0.17650    1.000
    N10      N        0.76645    0.46560    0.76780    1.000
    N11      N        0.74186    0.64120    0.84300    1.000
    C27      C        0.74461    0.57900    0.74190    1.000
    H19      H        0.73280    0.60910    0.66020    1.000
    N12      N        0.80000    0.36520    0.96390    1.000
    H20      H        0.80580    0.36700    0.04530    1.000
    H21      H        0.80830    0.30040    0.92610    1.000
    Cd4      Cd       0.28975    0.16823    0.13340    1.000
    O7       O        0.34666    0.19730    0.29660    1.000
    C28      C        0.47940    0.01510    0.46440    1.000
    C29      C        0.36243    0.09430    0.26500    1.000
    C30      C        0.40250    0.06220    0.33620    1.000
    C31      C        0.45850    0.11190    0.50510    1.000
    H22      H        0.47010    0.16250    0.57700    1.000
    C32      C        0.42110    0.13600    0.44300    1.000
    H23      H        0.40790    0.20320    0.47280    1.000
    C33      C        0.42290    0.96670    0.29460    1.000
    H24      H        0.41140    0.91690    0.22200    1.000
    N13      N        0.26380    0.06830    0.94450    1.000
    C34      C        0.46060    0.94290    0.35930    1.000
    H25      H        0.47370    0.87480    0.33030    1.000
    C35      C        0.27767    0.96540    0.89480    1.000
    O8       O        0.34598    0.02290    0.17650    1.000
    N14      N        0.26645    0.96560    0.76780    1.000
    N15      N        0.24186    0.14120    0.84300    1.000
    C36      C        0.24461    0.07900    0.74190    1.000
    H26      H        0.23280    0.10910    0.66020    1.000
    N16      N        0.30000    0.86520    0.96390    1.000
    H27      H        0.30580    0.86700    0.04530    1.000
    H28      H        0.30830    0.80040    0.92610    1.000
    Cd5      Cd       0.78975    0.33177    0.63340    1.000
    O9       O        0.84666    0.30270    0.79660    1.000
    C37      C        0.97940    0.48490    0.96440    1.000
    C38      C        0.86243    0.40570    0.76500    1.000
    C39      C        0.90250    0.43780    0.83620    1.000
    C40      C        0.95850    0.38810    0.00510    1.000
    H29      H        0.97010    0.33750    0.07700    1.000
    C41      C        0.92110    0.36400    0.94300    1.000
    H30      H        0.90790    0.29680    0.97280    1.000
    C42      C        0.92290    0.53330    0.79460    1.000
    H31      H        0.91140    0.58310    0.72200    1.000
    N17      N        0.76380    0.43170    0.44450    1.000
    C43      C        0.96060    0.55710    0.85930    1.000
    H32      H        0.97370    0.62520    0.83030    1.000
    C44      C        0.77767    0.53460    0.39480    1.000
    O10      O        0.84598    0.47710    0.67650    1.000
    N18      N        0.76645    0.53440    0.26780    1.000
    N19      N        0.74186    0.35880    0.34300    1.000
    C45      C        0.74461    0.42100    0.24190    1.000
    H33      H        0.73280    0.39090    0.16020    1.000
    N20      N        0.80000    0.63480    0.46390    1.000
    H34      H        0.80580    0.63300    0.54530    1.000
    H35      H        0.80830    0.69960    0.42610    1.000
    Cd6      Cd       0.28975    0.83177    0.63340    1.000
    O11      O        0.34666    0.80270    0.79660    1.000
    C46      C        0.47940    0.98490    0.96440    1.000
    C47      C        0.36243    0.90570    0.76500    1.000
    C48      C        0.40250    0.93780    0.83620    1.000
    C49      C        0.45850    0.88810    0.00510    1.000
    H36      H        0.47010    0.83750    0.07700    1.000
    C50      C        0.42110    0.86400    0.94300    1.000
    H37      H        0.40790    0.79680    0.97280    1.000
    C51      C        0.42290    0.03330    0.79460    1.000
    H38      H        0.41140    0.08310    0.72200    1.000
    N21      N        0.26380    0.93170    0.44450    1.000
    C52      C        0.46060    0.05710    0.85930    1.000
    H39      H        0.47370    0.12520    0.83030    1.000
    C53      C        0.27767    0.03460    0.39480    1.000
    O12      O        0.34598    0.97710    0.67650    1.000
    N22      N        0.26645    0.03440    0.26780    1.000
    N23      N        0.24186    0.85880    0.34300    1.000
    C54      C        0.24461    0.92100    0.24190    1.000
    H40      H        0.23280    0.89090    0.16020    1.000
    N24      N        0.30000    0.13480    0.46390    1.000
    H41      H        0.30580    0.13300    0.54530    1.000
    H42      H        0.30830    0.19960    0.42610    1.000
    Cd7      Cd       0.21025    0.33177    0.86660    1.000
    O13      O        0.15334    0.30270    0.70340    1.000
    C55      C        0.02060    0.48490    0.53560    1.000
    C56      C        0.13757    0.40570    0.73500    1.000
    C57      C        0.09750    0.43780    0.66380    1.000
    C58      C        0.04150    0.38810    0.49490    1.000
    H43      H        0.02990    0.33750    0.42300    1.000
    C59      C        0.07890    0.36400    0.55700    1.000
    H44      H        0.09210    0.29680    0.52720    1.000
    C60      C        0.07710    0.53330    0.70540    1.000
    H45      H        0.08860    0.58310    0.77800    1.000
    N25      N        0.23620    0.43170    0.05550    1.000
    C61      C        0.03940    0.55710    0.64070    1.000
    H46      H        0.02630    0.62520    0.66970    1.000
    C62      C        0.22233    0.53460    0.10520    1.000
    O14      O        0.15402    0.47710    0.82350    1.000
    N26      N        0.23355    0.53440    0.23220    1.000
    N27      N        0.25814    0.35880    0.15700    1.000
    C63      C        0.25539    0.42100    0.25810    1.000
    H47      H        0.26720    0.39090    0.33980    1.000
    N28      N        0.20000    0.63480    0.03610    1.000
    H48      H        0.19420    0.63300    0.95470    1.000
    H49      H        0.19170    0.69960    0.07390    1.000
    Cd8      Cd       0.71025    0.83177    0.86660    1.000
    O15      O        0.65334    0.80270    0.70340    1.000
    C64      C        0.52060    0.98490    0.53560    1.000
    C65      C        0.63757    0.90570    0.73500    1.000
    C66      C        0.59750    0.93780    0.66380    1.000
    C67      C        0.54150    0.88810    0.49490    1.000
    H50      H        0.52990    0.83750    0.42300    1.000
    C68      C        0.57890    0.86400    0.55700    1.000
    H51      H        0.59210    0.79680    0.52720    1.000
    C69      C        0.57710    0.03330    0.70540    1.000
    H52      H        0.58860    0.08310    0.77800    1.000
    N29      N        0.73620    0.93170    0.05550    1.000
    C70      C        0.53940    0.05710    0.64070    1.000
    H53      H        0.52630    0.12520    0.66970    1.000
    C71      C        0.72233    0.03460    0.10520    1.000
    O16      O        0.65402    0.97710    0.82350    1.000
    N30      N        0.73355    0.03440    0.23220    1.000
    N31      N        0.75814    0.85880    0.15700    1.000
    C72      C        0.75539    0.92100    0.25810    1.000
    H54      H        0.76720    0.89090    0.33980    1.000
    N32      N        0.70000    0.13480    0.03610    1.000
    H55      H        0.69420    0.13300    0.95470    1.000
    H56      H        0.69170    0.19960    0.07390    1.000
