# CIF file generated by openbabel 3.1.0, see https://openbabel.org
data_I
_chemical_name_common 'image0'
_cell_length_a 10.913
_cell_length_b 23.195
_cell_length_c 10.043
_cell_angle_alpha 90
_cell_angle_beta 104.15
_cell_angle_gamma 90
_space_group_name_H-M_alt 'P 1'
_space_group_name_Hall 'P 1'
loop_
    _symmetry_equiv_pos_as_xyz
    x,y,z
loop_
    _atom_site_label
    _atom_site_type_symbol
    _atom_site_fract_x
    _atom_site_fract_y
    _atom_site_fract_z
    _atom_site_occupancy
    O1       O        0.19070    0.85193    0.21812    1.000
    O2       O        0.27734    0.76410    0.22532    1.000
    O3       O        0.53776    0.72176    0.90374    1.000
    O4       O        0.65622    0.79242    0.85100    1.000
    C1       C        0.36253    0.83771    0.11661    1.000
    C2       C        0.42619    0.79773    0.05517    1.000
    H1       H        0.41190    0.75850    0.06370    1.000
    C3       C        0.51104    0.81610    0.98123    1.000
    C4       C        0.53446    0.87445    0.97080    1.000
    H2       H        0.59290    0.88660    0.92310    1.000
    C5       C        0.47080    0.91510    0.03140    1.000
    C6       C        0.38423    0.89636    0.10421    1.000
    H3       H        0.34100    0.92310    0.14450    1.000
    C7       C        0.26823    0.81743    0.19301    1.000
    C8       C        0.57273    0.77279    0.90730    1.000
    C9       C        0.49170    0.97539    0.01200    1.000
    O5       O        0.69070    0.35193    0.21812    1.000
    O6       O        0.77734    0.26410    0.22532    1.000
    O7       O        0.03776    0.22176    0.90374    1.000
    O8       O        0.15622    0.29242    0.85100    1.000
    C10      C        0.86253    0.33771    0.11661    1.000
    C11      C        0.92619    0.29773    0.05517    1.000
    H4       H        0.91190    0.25850    0.06370    1.000
    C12      C        0.01104    0.31610    0.98123    1.000
    C13      C        0.03446    0.37445    0.97080    1.000
    H5       H        0.09290    0.38660    0.92310    1.000
    C14      C        0.97080    0.41510    0.03140    1.000
    C15      C        0.88423    0.39636    0.10421    1.000
    H6       H        0.84100    0.42310    0.14450    1.000
    C16      C        0.76823    0.31743    0.19301    1.000
    C17      C        0.07273    0.27279    0.90730    1.000
    C18      C        0.99170    0.47539    0.01200    1.000
    O9       O        0.80930    0.85193    0.28188    1.000
    O10      O        0.72266    0.76410    0.27468    1.000
    O11      O        0.46224    0.72176    0.59626    1.000
    O12      O        0.34378    0.79242    0.64900    1.000
    C19      C        0.63747    0.83771    0.38339    1.000
    C20      C        0.57381    0.79773    0.44483    1.000
    H7       H        0.58810    0.75850    0.43630    1.000
    C21      C        0.48896    0.81610    0.51877    1.000
    C22      C        0.46554    0.87445    0.52920    1.000
    H8       H        0.40710    0.88660    0.57690    1.000
    C23      C        0.52920    0.91510    0.46860    1.000
    C24      C        0.61577    0.89636    0.39579    1.000
    H9       H        0.65900    0.92310    0.35550    1.000
    C25      C        0.73177    0.81743    0.30699    1.000
    C26      C        0.42727    0.77279    0.59270    1.000
    C27      C        0.50830    0.97539    0.48800    1.000
    O13      O        0.30930    0.35193    0.28188    1.000
    O14      O        0.22266    0.26410    0.27468    1.000
    O15      O        0.96224    0.22176    0.59626    1.000
    O16      O        0.84378    0.29242    0.64900    1.000
    C28      C        0.13747    0.33771    0.38339    1.000
    C29      C        0.07381    0.29773    0.44483    1.000
    H10      H        0.08810    0.25850    0.43630    1.000
    C30      C        0.98896    0.31610    0.51877    1.000
    C31      C        0.96554    0.37445    0.52920    1.000
    H11      H        0.90710    0.38660    0.57690    1.000
    C32      C        0.02920    0.41510    0.46860    1.000
    C33      C        0.11577    0.39636    0.39579    1.000
    H12      H        0.15900    0.42310    0.35550    1.000
    C34      C        0.23177    0.31743    0.30699    1.000
    C35      C        0.92727    0.27279    0.59270    1.000
    C36      C        0.00830    0.47539    0.48800    1.000
    O17      O        0.80930    0.14807    0.78188    1.000
    O18      O        0.72266    0.23590    0.77468    1.000
    O19      O        0.46224    0.27824    0.09626    1.000
    O20      O        0.34378    0.20758    0.14900    1.000
    C37      C        0.63747    0.16229    0.88339    1.000
    C38      C        0.57381    0.20227    0.94483    1.000
    H13      H        0.58810    0.24150    0.93630    1.000
    C39      C        0.48896    0.18390    0.01877    1.000
    C40      C        0.46554    0.12555    0.02920    1.000
    H14      H        0.40710    0.11340    0.07690    1.000
    C41      C        0.52920    0.08490    0.96860    1.000
    C42      C        0.61577    0.10364    0.89579    1.000
    H15      H        0.65900    0.07690    0.85550    1.000
    C43      C        0.73177    0.18257    0.80699    1.000
    C44      C        0.42727    0.22721    0.09270    1.000
    C45      C        0.50830    0.02461    0.98800    1.000
    O21      O        0.30930    0.64807    0.78188    1.000
    O22      O        0.22266    0.73590    0.77468    1.000
    O23      O        0.96224    0.77824    0.09626    1.000
    O24      O        0.84378    0.70758    0.14900    1.000
    C46      C        0.13747    0.66229    0.88339    1.000
    C47      C        0.07381    0.70227    0.94483    1.000
    H16      H        0.08810    0.74150    0.93630    1.000
    C48      C        0.98896    0.68390    0.01877    1.000
    C49      C        0.96554    0.62555    0.02920    1.000
    H17      H        0.90710    0.61340    0.07690    1.000
    C50      C        0.02920    0.58490    0.96860    1.000
    C51      C        0.11577    0.60364    0.89579    1.000
    H18      H        0.15900    0.57690    0.85550    1.000
    C52      C        0.23177    0.68257    0.80699    1.000
    C53      C        0.92727    0.72721    0.09270    1.000
    C54      C        0.00830    0.52461    0.98800    1.000
    O25      O        0.19070    0.14807    0.71812    1.000
    O26      O        0.27734    0.23590    0.72532    1.000
    O27      O        0.53776    0.27824    0.40374    1.000
    O28      O        0.65622    0.20758    0.35100    1.000
    C55      C        0.36253    0.16229    0.61661    1.000
    C56      C        0.42619    0.20227    0.55517    1.000
    H19      H        0.41190    0.24150    0.56370    1.000
    C57      C        0.51104    0.18390    0.48123    1.000
    C58      C        0.53446    0.12555    0.47080    1.000
    H20      H        0.59290    0.11340    0.42310    1.000
    C59      C        0.47080    0.08490    0.53140    1.000
    C60      C        0.38423    0.10364    0.60421    1.000
    H21      H        0.34100    0.07690    0.64450    1.000
    C61      C        0.26823    0.18257    0.69301    1.000
    C62      C        0.57273    0.22721    0.40730    1.000
    C63      C        0.49170    0.02461    0.51200    1.000
    O29      O        0.69070    0.64807    0.71812    1.000
    O30      O        0.77734    0.73590    0.72532    1.000
    O31      O        0.03776    0.77824    0.40374    1.000
    O32      O        0.15622    0.70758    0.35100    1.000
    C64      C        0.86253    0.66229    0.61661    1.000
    C65      C        0.92619    0.70227    0.55517    1.000
    H22      H        0.91190    0.74150    0.56370    1.000
    C66      C        0.01104    0.68390    0.48123    1.000
    C67      C        0.03446    0.62555    0.47080    1.000
    H23      H        0.09290    0.61340    0.42310    1.000
    C68      C        0.97080    0.58490    0.53140    1.000
    C69      C        0.88423    0.60364    0.60421    1.000
    H24      H        0.84100    0.57690    0.64450    1.000
    C70      C        0.76823    0.68257    0.69301    1.000
    C71      C        0.07273    0.72721    0.40730    1.000
    C72      C        0.99170    0.52461    0.51200    1.000
    Mn1      Mn       0.00000    0.84591    0.25000    1.000
    Mn2      Mn       0.50000    0.34591    0.25000    1.000
    Mn3      Mn       0.00000    0.15409    0.75000    1.000
    Mn4      Mn       0.50000    0.65409    0.75000    1.000
