# CIF file generated by openbabel 3.1.0, see https://openbabel.org
data_I
_chemical_name_common 'image0'
_cell_length_a 13.4158
_cell_length_b 21.8551
_cell_length_c 14.4779
_cell_angle_alpha 90
_cell_angle_beta 92.291
_cell_angle_gamma 90
_space_group_name_H-M_alt 'P 1'
_space_group_name_Hall 'P 1'
loop_
    _symmetry_equiv_pos_as_xyz
    x,y,z
loop_
    _atom_site_label
    _atom_site_type_symbol
    _atom_site_fract_x
    _atom_site_fract_y
    _atom_site_fract_z
    _atom_site_occupancy
    Cd1      Cd       0.67501    0.01922    0.82615    1.000
    O1       O        0.67270    0.98717    0.98000    1.000
    O2       O        0.79400    0.94882    0.74583    1.000
    O3       O        0.74680    0.03878    0.69267    1.000
    C1       C        0.75960    0.00878    0.99980    1.000
    C2       C        0.53530    0.11528    0.86180    1.000
    C3       C        0.83790    0.97537    0.59290    1.000
    O4       O        0.02680    0.42972    0.60581    1.000
    O5       O        0.62090    0.11893    0.83380    1.000
    C4       C        0.47620    0.17474    0.86890    1.000
    C5       C        0.80710    0.99261    0.09230    1.000
    C6       C        0.79100    0.98852    0.68360    1.000
    O6       O        0.95080    0.93539    0.33719    1.000
    O7       O        0.49280    0.06720    0.88170    1.000
    C7       C        0.95570    0.98320    0.19010    1.000
    H1       H        0.02410    0.98860    0.19970    1.000
    C8       C        0.90100    0.95709    0.25740    1.000
    C9       C        0.75310    0.96592    0.16120    1.000
    H2       H        0.68490    0.95960    0.15140    1.000
    C10      C        0.88030    0.91925    0.57560    1.000
    H3       H        0.88430    0.88990    0.62220    1.000
    C11      C        0.83450    0.01930    0.52350    1.000
    H4       H        0.80730    0.05760    0.53480    1.000
    C12      C        0.79870    0.94866    0.24390    1.000
    H5       H        0.76150    0.93160    0.29030    1.000
    O8       O        0.80570    0.03859    0.94255    1.000
    C13      C        0.09810    0.40337    0.75110    1.000
    C14      C        0.37420    0.28210    0.89430    1.000
    C15      C        0.51380    0.22996    0.83960    1.000
    H6       H        0.57460    0.23080    0.81100    1.000
    O9       O        0.94080    0.45231    0.73056    1.000
    C16      C        0.33310    0.22770    0.92130    1.000
    H7       H        0.27080    0.22710    0.94720    1.000
    C17      C        0.91690    0.90593    0.48950    1.000
    H8       H        0.94500    0.86790    0.47800    1.000
    C18      C        0.87110    0.00650    0.43770    1.000
    H9       H        0.86880    0.03600    0.39140    1.000
    O10      O        0.33040    0.33670    0.91990    1.000
    C19      C        0.01430    0.43136    0.69160    1.000
    C20      C        0.26650    0.36710    0.76620    1.000
    H10      H        0.32770    0.35970    0.74040    1.000
    C21      C        0.46330    0.28326    0.85200    1.000
    H11      H        0.48940    0.32010    0.83170    1.000
    C22      C        0.18840    0.39098    0.71330    1.000
    H12      H        0.19680    0.39890    0.65100    1.000
    C23      C        0.90880    0.00150    0.10790    1.000
    H13      H        0.94580    0.01990    0.06260    1.000
    C24      C        0.91100    0.94980    0.42170    1.000
    C25      C        0.16430    0.36700    0.89700    1.000
    H14      H        0.15640    0.35940    0.95950    1.000
    C26      C        0.25250    0.35440    0.85770    1.000
    C27      C        0.38410    0.17449    0.91020    1.000
    H15      H        0.35740    0.13780    0.93020    1.000
    C28      C        0.08710    0.39100    0.84330    1.000
    H16      H        0.02640    0.39900    0.86970    1.000
    Cd2      Cd       0.82499    0.51922    0.67385    1.000
    O11      O        0.82730    0.48717    0.52000    1.000
    O12      O        0.70600    0.44882    0.75417    1.000
    O13      O        0.75320    0.53878    0.80733    1.000
    C29      C        0.74040    0.50878    0.50020    1.000
    C30      C        0.96470    0.61528    0.63820    1.000
    C31      C        0.66210    0.47537    0.90710    1.000
    O14      O        0.47320    0.92972    0.89419    1.000
    O15      O        0.87910    0.61893    0.66620    1.000
    C32      C        0.02380    0.67474    0.63110    1.000
    C33      C        0.69290    0.49261    0.40770    1.000
    C34      C        0.70900    0.48852    0.81640    1.000
    O16      O        0.54920    0.43539    0.16281    1.000
    O17      O        0.00720    0.56720    0.61830    1.000
    C35      C        0.54430    0.48320    0.30990    1.000
    H17      H        0.47590    0.48860    0.30030    1.000
    C36      C        0.59900    0.45709    0.24260    1.000
    C37      C        0.74690    0.46592    0.33880    1.000
    H18      H        0.81510    0.45960    0.34860    1.000
    C38      C        0.61970    0.41925    0.92440    1.000
    H19      H        0.61570    0.38990    0.87780    1.000
    C39      C        0.66550    0.51930    0.97650    1.000
    H20      H        0.69270    0.55760    0.96520    1.000
    C40      C        0.70130    0.44866    0.25610    1.000
    H21      H        0.73850    0.43160    0.20970    1.000
    O18      O        0.69430    0.53859    0.55745    1.000
    C41      C        0.40190    0.90337    0.74890    1.000
    C42      C        0.12580    0.78210    0.60570    1.000
    C43      C        0.98620    0.72996    0.66040    1.000
    H22      H        0.92540    0.73080    0.68900    1.000
    O19      O        0.55920    0.95231    0.76944    1.000
    C44      C        0.16690    0.72770    0.57870    1.000
    H23      H        0.22920    0.72710    0.55280    1.000
    C45      C        0.58310    0.40593    0.01050    1.000
    H24      H        0.55500    0.36790    0.02200    1.000
    C46      C        0.62890    0.50650    0.06230    1.000
    H25      H        0.63120    0.53600    0.10860    1.000
    O20      O        0.16960    0.83670    0.58010    1.000
    C47      C        0.48570    0.93136    0.80840    1.000
    C48      C        0.23350    0.86710    0.73380    1.000
    H26      H        0.17230    0.85970    0.75960    1.000
    C49      C        0.03670    0.78326    0.64800    1.000
    H27      H        0.01060    0.82010    0.66830    1.000
    C50      C        0.31160    0.89098    0.78670    1.000
    H28      H        0.30320    0.89890    0.84900    1.000
    C51      C        0.59120    0.50150    0.39210    1.000
    H29      H        0.55420    0.51990    0.43740    1.000
    C52      C        0.58900    0.44980    0.07830    1.000
    C53      C        0.33570    0.86700    0.60300    1.000
    H30      H        0.34360    0.85940    0.54050    1.000
    C54      C        0.24750    0.85440    0.64230    1.000
    C55      C        0.11590    0.67449    0.58980    1.000
    H31      H        0.14260    0.63780    0.56980    1.000
    C56      C        0.41290    0.89100    0.65670    1.000
    H32      H        0.47360    0.89900    0.63030    1.000
    Cd3      Cd       0.32499    0.98078    0.17385    1.000
    O21      O        0.32730    0.01283    0.02000    1.000
    O22      O        0.20600    0.05118    0.25417    1.000
    O23      O        0.25320    0.96122    0.30733    1.000
    C57      C        0.24040    0.99122    0.00020    1.000
    C58      C        0.46470    0.88472    0.13820    1.000
    C59      C        0.16210    0.02463    0.40710    1.000
    O24      O        0.97320    0.57028    0.39419    1.000
    O25      O        0.37910    0.88107    0.16620    1.000
    C60      C        0.52380    0.82526    0.13110    1.000
    C61      C        0.19290    0.00739    0.90770    1.000
    C62      C        0.20900    0.01148    0.31640    1.000
    O26      O        0.04920    0.06461    0.66281    1.000
    O27      O        0.50720    0.93280    0.11830    1.000
    C63      C        0.04430    0.01680    0.80990    1.000
    H33      H        0.97590    0.01140    0.80030    1.000
    C64      C        0.09900    0.04291    0.74260    1.000
    C65      C        0.24690    0.03408    0.83880    1.000
    H34      H        0.31510    0.04040    0.84860    1.000
    C66      C        0.11970    0.08075    0.42440    1.000
    H35      H        0.11570    0.11010    0.37780    1.000
    C67      C        0.16550    0.98070    0.47650    1.000
    H36      H        0.19270    0.94240    0.46520    1.000
    C68      C        0.20130    0.05134    0.75610    1.000
    H37      H        0.23850    0.06840    0.70970    1.000
    O28      O        0.19430    0.96141    0.05745    1.000
    C69      C        0.90190    0.59663    0.24890    1.000
    C70      C        0.62580    0.71790    0.10570    1.000
    C71      C        0.48620    0.77004    0.16040    1.000
    H38      H        0.42540    0.76920    0.18900    1.000
    O29      O        0.05920    0.54769    0.26944    1.000
    C72      C        0.66690    0.77230    0.07870    1.000
    H39      H        0.72920    0.77290    0.05280    1.000
    C73      C        0.08310    0.09407    0.51050    1.000
    H40      H        0.05500    0.13210    0.52200    1.000
    C74      C        0.12890    0.99350    0.56230    1.000
    H41      H        0.13120    0.96400    0.60860    1.000
    O30      O        0.66960    0.66330    0.08010    1.000
    C75      C        0.98570    0.56864    0.30840    1.000
    C76      C        0.73350    0.63290    0.23380    1.000
    H42      H        0.67230    0.64030    0.25960    1.000
    C77      C        0.53670    0.71674    0.14800    1.000
    H43      H        0.51060    0.67990    0.16830    1.000
    C78      C        0.81160    0.60902    0.28670    1.000
    H44      H        0.80320    0.60110    0.34900    1.000
    C79      C        0.09120    0.99850    0.89210    1.000
    H45      H        0.05420    0.98010    0.93740    1.000
    C80      C        0.08900    0.05020    0.57830    1.000
    C81      C        0.83570    0.63300    0.10300    1.000
    H46      H        0.84360    0.64060    0.04050    1.000
    C82      C        0.74750    0.64560    0.14230    1.000
    C83      C        0.61590    0.82551    0.08980    1.000
    H47      H        0.64260    0.86220    0.06980    1.000
    C84      C        0.91290    0.60900    0.15670    1.000
    H48      H        0.97360    0.60100    0.13030    1.000
    Cd4      Cd       0.17501    0.48078    0.32615    1.000
    O31      O        0.17270    0.51283    0.48000    1.000
    O32      O        0.29400    0.55118    0.24583    1.000
    O33      O        0.24680    0.46122    0.19267    1.000
    C85      C        0.25960    0.49122    0.49980    1.000
    C86      C        0.03530    0.38472    0.36180    1.000
    C87      C        0.33790    0.52463    0.09290    1.000
    O34      O        0.52680    0.07028    0.10581    1.000
    O35      O        0.12090    0.38107    0.33380    1.000
    C88      C        0.97620    0.32526    0.36890    1.000
    C89      C        0.30710    0.50739    0.59230    1.000
    C90      C        0.29100    0.51148    0.18360    1.000
    O36      O        0.45080    0.56461    0.83719    1.000
    O37      O        0.99280    0.43280    0.38170    1.000
    C91      C        0.45570    0.51680    0.69010    1.000
    H49      H        0.52410    0.51140    0.69970    1.000
    C92      C        0.40100    0.54291    0.75740    1.000
    C93      C        0.25310    0.53408    0.66120    1.000
    H50      H        0.18490    0.54040    0.65140    1.000
    C94      C        0.38030    0.58075    0.07560    1.000
    H51      H        0.38430    0.61010    0.12220    1.000
    C95      C        0.33450    0.48070    0.02350    1.000
    H52      H        0.30730    0.44240    0.03480    1.000
    C96      C        0.29870    0.55134    0.74390    1.000
    H53      H        0.26150    0.56840    0.79030    1.000
    O38      O        0.30570    0.46141    0.44255    1.000
    C97      C        0.59810    0.09663    0.25110    1.000
    C98      C        0.87420    0.21790    0.39430    1.000
    C99      C        0.01380    0.27004    0.33960    1.000
    H54      H        0.07460    0.26920    0.31100    1.000
    O39      O        0.44080    0.04769    0.23056    1.000
    C100     C        0.83310    0.27230    0.42130    1.000
    H55      H        0.77080    0.27290    0.44720    1.000
    C101     C        0.41690    0.59407    0.98950    1.000
    H56      H        0.44500    0.63210    0.97800    1.000
    C102     C        0.37110    0.49350    0.93770    1.000
    H57      H        0.36880    0.46400    0.89140    1.000
    O40      O        0.83040    0.16330    0.41990    1.000
    C103     C        0.51430    0.06864    0.19160    1.000
    C104     C        0.76650    0.13290    0.26620    1.000
    H58      H        0.82770    0.14030    0.24040    1.000
    C105     C        0.96330    0.21674    0.35200    1.000
    H59      H        0.98940    0.17990    0.33170    1.000
    C106     C        0.68840    0.10902    0.21330    1.000
    H60      H        0.69680    0.10110    0.15100    1.000
    C107     C        0.40880    0.49850    0.60790    1.000
    H61      H        0.44580    0.48010    0.56260    1.000
    C108     C        0.41100    0.55020    0.92170    1.000
    C109     C        0.66430    0.13300    0.39700    1.000
    H62      H        0.65640    0.14060    0.45950    1.000
    C110     C        0.75250    0.14560    0.35770    1.000
    C111     C        0.88410    0.32551    0.41020    1.000
    H63      H        0.85740    0.36220    0.43020    1.000
    C112     C        0.58710    0.10900    0.34330    1.000
    H64      H        0.52640    0.10100    0.36970    1.000
    Cd5      Cd       0.50000    0.00000    0.00000    1.000
    Cd6      Cd       0.00000    0.50000    0.50000    1.000
