# CIF file generated by openbabel 3.1.0, see https://openbabel.org
data_I
_chemical_name_common 'image0'
_cell_length_a 19.4724
_cell_length_b 19.4724
_cell_length_c 37.754
_cell_angle_alpha 90
_cell_angle_beta 90
_cell_angle_gamma 120
_space_group_name_H-M_alt 'P 1'
_space_group_name_Hall 'P 1'
loop_
    _symmetry_equiv_pos_as_xyz
    x,y,z
loop_
    _atom_site_label
    _atom_site_type_symbol
    _atom_site_fract_x
    _atom_site_fract_y
    _atom_site_fract_z
    _atom_site_occupancy
    N1       N        0.19020    0.39320    0.91897    1.000
    C1       C        0.12660    0.39840    0.93250    1.000
    H1       H        0.09510    0.41000    0.91710    1.000
    C2       C        0.10920    0.38680    0.96840    1.000
    H2       H        0.06580    0.39050    0.97770    1.000
    C3       C        0.15550    0.37000    0.99089    1.000
    C4       C        0.21910    0.36470    0.97740    1.000
    H3       H        0.25060    0.35310    0.99270    1.000
    C5       C        0.23650    0.37630    0.94140    1.000
    H4       H        0.27990    0.37270    0.93220    1.000
    C6       C        0.12500    0.34660    0.02940    1.000
    O1       O        0.07850    0.38960    0.04250    1.000
    C7       C        0.19930    0.27400    0.10018    1.000
    H5       H        0.24850    0.28760    0.08940    1.000
    C8       C        0.17920    0.23570    0.13247    1.000
    C9       C        0.23350    0.21100    0.14893    1.000
    O2       O        0.21790    0.18370    0.17995    1.000
    O3       O        0.28980    0.21780    0.13008    1.000
    N2       N        0.85687    0.72653    0.25230    1.000
    C10      C        0.79327    0.73173    0.26583    1.000
    H6       H        0.76177    0.74333    0.25043    1.000
    C11      C        0.77587    0.72013    0.30173    1.000
    H7       H        0.73247    0.72383    0.31103    1.000
    C12      C        0.82217    0.70333    0.32422    1.000
    C13      C        0.88577    0.69803    0.31073    1.000
    H8       H        0.91727    0.68643    0.32603    1.000
    C14      C        0.90317    0.70963    0.27473    1.000
    H9       H        0.94657    0.70603    0.26553    1.000
    C15      C        0.79167    0.67993    0.36273    1.000
    O4       O        0.74517    0.72293    0.37583    1.000
    C16      C        0.86597    0.60733    0.43351    1.000
    H10      H        0.91517    0.62093    0.42273    1.000
    C17      C        0.84587    0.56903    0.46580    1.000
    C18      C        0.90017    0.54433    0.48226    1.000
    O5       O        0.88457    0.51703    0.51328    1.000
    O6       O        0.95647    0.55113    0.46341    1.000
    N3       N        0.52353    0.05987    0.58564    1.000
    C19      C        0.45993    0.06507    0.59917    1.000
    H11      H        0.42843    0.07667    0.58377    1.000
    C20      C        0.44253    0.05347    0.63507    1.000
    H12      H        0.39913    0.05717    0.64437    1.000
    C21      C        0.48883    0.03667    0.65756    1.000
    C22      C        0.55243    0.03137    0.64407    1.000
    H13      H        0.58393    0.01977    0.65937    1.000
    C23      C        0.56983    0.04297    0.60807    1.000
    H14      H        0.61323    0.03937    0.59887    1.000
    C24      C        0.45833    0.01327    0.69607    1.000
    O7       O        0.41183    0.05627    0.70917    1.000
    C25      C        0.53263    0.94067    0.76685    1.000
    H15      H        0.58183    0.95427    0.75607    1.000
    C26      C        0.51253    0.90237    0.79914    1.000
    C27      C        0.56683    0.87767    0.81560    1.000
    O8       O        0.55123    0.85037    0.84662    1.000
    O9       O        0.62313    0.88447    0.79675    1.000
    N4       N        0.60680    0.79700    0.91897    1.000
    C28      C        0.60160    0.72820    0.93250    1.000
    H16      H        0.59000    0.68510    0.91710    1.000
    C29      C        0.61320    0.72240    0.96840    1.000
    H17      H        0.60950    0.67530    0.97770    1.000
    C30      C        0.63000    0.78550    0.99089    1.000
    C31      C        0.63530    0.85440    0.97740    1.000
    H18      H        0.64690    0.89750    0.99270    1.000
    C32      C        0.62370    0.86020    0.94140    1.000
    H19      H        0.62730    0.90720    0.93220    1.000
    C33      C        0.65340    0.77840    0.02940    1.000
    O10      O        0.61040    0.68890    0.04250    1.000
    C34      C        0.72600    0.92530    0.10018    1.000
    H20      H        0.71240    0.96090    0.08940    1.000
    C35      C        0.76430    0.94350    0.13247    1.000
    C36      C        0.78900    0.02250    0.14893    1.000
    O11      O        0.81630    0.03420    0.17995    1.000
    O12      O        0.78220    0.07200    0.13008    1.000
    N5       N        0.27347    0.13033    0.25230    1.000
    C37      C        0.26827    0.06153    0.26583    1.000
    H21      H        0.25667    0.01843    0.25043    1.000
    C38      C        0.27987    0.05573    0.30173    1.000
    H22      H        0.27617    0.00863    0.31103    1.000
    C39      C        0.29667    0.11883    0.32422    1.000
    C40      C        0.30197    0.18773    0.31073    1.000
    H23      H        0.31357    0.23083    0.32603    1.000
    C41      C        0.29037    0.19353    0.27473    1.000
    H24      H        0.29397    0.24053    0.26553    1.000
    C42      C        0.32007    0.11173    0.36273    1.000
    O13      O        0.27707    0.02223    0.37583    1.000
    C43      C        0.39267    0.25863    0.43351    1.000
    H25      H        0.37907    0.29423    0.42273    1.000
    C44      C        0.43097    0.27683    0.46580    1.000
    C45      C        0.45567    0.35583    0.48226    1.000
    O14      O        0.48297    0.36753    0.51328    1.000
    O15      O        0.44887    0.40533    0.46341    1.000
    N6       N        0.94013    0.46367    0.58564    1.000
    C46      C        0.93493    0.39487    0.59917    1.000
    H26      H        0.92333    0.35177    0.58377    1.000
    C47      C        0.94653    0.38907    0.63507    1.000
    H27      H        0.94283    0.34197    0.64437    1.000
    C48      C        0.96333    0.45217    0.65756    1.000
    C49      C        0.96863    0.52107    0.64407    1.000
    H28      H        0.98023    0.56417    0.65937    1.000
    C50      C        0.95703    0.52687    0.60807    1.000
    H29      H        0.96063    0.57387    0.59887    1.000
    C51      C        0.98673    0.44507    0.69607    1.000
    O16      O        0.94373    0.35557    0.70917    1.000
    C52      C        0.05933    0.59197    0.76685    1.000
    H30      H        0.04573    0.62757    0.75607    1.000
    C53      C        0.09763    0.61017    0.79914    1.000
    C54      C        0.12233    0.68917    0.81560    1.000
    O17      O        0.14963    0.70087    0.84662    1.000
    O18      O        0.11553    0.73867    0.79675    1.000
    N7       N        0.20300    0.80980    0.91897    1.000
    C55      C        0.27180    0.87340    0.93250    1.000
    H31      H        0.31490    0.90490    0.91710    1.000
    C56      C        0.27760    0.89080    0.96840    1.000
    H32      H        0.32470    0.93420    0.97770    1.000
    C57      C        0.21450    0.84450    0.99089    1.000
    C58      C        0.14560    0.78090    0.97740    1.000
    H33      H        0.10250    0.74940    0.99270    1.000
    C59      C        0.13980    0.76350    0.94140    1.000
    H34      H        0.09280    0.72010    0.93220    1.000
    C60      C        0.22160    0.87500    0.02940    1.000
    O19      O        0.31110    0.92150    0.04250    1.000
    C61      C        0.07470    0.80070    0.10018    1.000
    H35      H        0.03910    0.75150    0.08940    1.000
    C62      C        0.05650    0.82080    0.13247    1.000
    C63      C        0.97750    0.76650    0.14893    1.000
    O20      O        0.96580    0.78210    0.17995    1.000
    O21      O        0.92800    0.71020    0.13008    1.000
    N8       N        0.86967    0.14313    0.25230    1.000
    C64      C        0.93847    0.20673    0.26583    1.000
    H36      H        0.98157    0.23823    0.25043    1.000
    C65      C        0.94427    0.22413    0.30173    1.000
    H37      H        0.99137    0.26753    0.31103    1.000
    C66      C        0.88117    0.17783    0.32422    1.000
    C67      C        0.81227    0.11423    0.31073    1.000
    H38      H        0.76917    0.08273    0.32603    1.000
    C68      C        0.80647    0.09683    0.27473    1.000
    H39      H        0.75947    0.05343    0.26553    1.000
    C69      C        0.88827    0.20833    0.36273    1.000
    O22      O        0.97777    0.25483    0.37583    1.000
    C70      C        0.74137    0.13403    0.43351    1.000
    H40      H        0.70577    0.08483    0.42273    1.000
    C71      C        0.72317    0.15413    0.46580    1.000
    C72      C        0.64417    0.09983    0.48226    1.000
    O23      O        0.63247    0.11543    0.51328    1.000
    O24      O        0.59467    0.04353    0.46341    1.000
    N9       N        0.53633    0.47647    0.58564    1.000
    C73      C        0.60513    0.54007    0.59917    1.000
    H41      H        0.64823    0.57157    0.58377    1.000
    C74      C        0.61093    0.55747    0.63507    1.000
    H42      H        0.65803    0.60087    0.64437    1.000
    C75      C        0.54783    0.51117    0.65756    1.000
    C76      C        0.47893    0.44757    0.64407    1.000
    H43      H        0.43583    0.41607    0.65937    1.000
    C77      C        0.47313    0.43017    0.60807    1.000
    H44      H        0.42613    0.38677    0.59887    1.000
    C78      C        0.55493    0.54167    0.69607    1.000
    O25      O        0.64443    0.58817    0.70917    1.000
    C79      C        0.40803    0.46737    0.76685    1.000
    H45      H        0.37243    0.41817    0.75607    1.000
    C80      C        0.38983    0.48747    0.79914    1.000
    C81      C        0.31083    0.43317    0.81560    1.000
    O26      O        0.29913    0.44877    0.84662    1.000
    O27      O        0.26133    0.37687    0.79675    1.000
    N10      N        0.39320    0.19020    0.08103    1.000
    C82      C        0.39840    0.12660    0.06750    1.000
    H46      H        0.41000    0.09510    0.08290    1.000
    C83      C        0.38680    0.10920    0.03160    1.000
    H47      H        0.39050    0.06580    0.02230    1.000
    C84      C        0.37000    0.15550    0.00911    1.000
    C85      C        0.36470    0.21910    0.02260    1.000
    H48      H        0.35310    0.25060    0.00730    1.000
    C86      C        0.37630    0.23650    0.05860    1.000
    H49      H        0.37270    0.27990    0.06780    1.000
    C87      C        0.34660    0.12500    0.97060    1.000
    O28      O        0.38960    0.07850    0.95750    1.000
    C88      C        0.27400    0.19930    0.89982    1.000
    H50      H        0.28760    0.24850    0.91060    1.000
    C89      C        0.23570    0.17920    0.86753    1.000
    C90      C        0.21100    0.23350    0.85107    1.000
    O29      O        0.18370    0.21790    0.82005    1.000
    O30      O        0.21780    0.28980    0.86992    1.000
    N11      N        0.05987    0.52353    0.41436    1.000
    C91      C        0.06507    0.45993    0.40083    1.000
    H51      H        0.07667    0.42843    0.41623    1.000
    C92      C        0.05347    0.44253    0.36493    1.000
    H52      H        0.05717    0.39913    0.35563    1.000
    C93      C        0.03667    0.48883    0.34244    1.000
    C94      C        0.03137    0.55243    0.35593    1.000
    H53      H        0.01977    0.58393    0.34063    1.000
    C95      C        0.04297    0.56983    0.39193    1.000
    H54      H        0.03937    0.61323    0.40113    1.000
    C96      C        0.01327    0.45833    0.30393    1.000
    O31      O        0.05627    0.41183    0.29083    1.000
    C97      C        0.94067    0.53263    0.23315    1.000
    H55      H        0.95427    0.58183    0.24393    1.000
    C98      C        0.90237    0.51253    0.20086    1.000
    C99      C        0.87767    0.56683    0.18440    1.000
    O32      O        0.85037    0.55123    0.15338    1.000
    O33      O        0.88447    0.62313    0.20325    1.000
    N12      N        0.72653    0.85687    0.74770    1.000
    C100     C        0.73173    0.79327    0.73417    1.000
    H56      H        0.74333    0.76177    0.74957    1.000
    C101     C        0.72013    0.77587    0.69827    1.000
    H57      H        0.72383    0.73247    0.68897    1.000
    C102     C        0.70333    0.82217    0.67578    1.000
    C103     C        0.69803    0.88577    0.68927    1.000
    H58      H        0.68643    0.91727    0.67397    1.000
    C104     C        0.70963    0.90317    0.72527    1.000
    H59      H        0.70603    0.94657    0.73447    1.000
    C105     C        0.67993    0.79167    0.63727    1.000
    O34      O        0.72293    0.74517    0.62417    1.000
    C106     C        0.60733    0.86597    0.56649    1.000
    H60      H        0.62093    0.91517    0.57727    1.000
    C107     C        0.56903    0.84587    0.53420    1.000
    C108     C        0.54433    0.90017    0.51774    1.000
    O35      O        0.51703    0.88457    0.48672    1.000
    O36      O        0.55113    0.95647    0.53659    1.000
    N13      N        0.79700    0.60680    0.08103    1.000
    C109     C        0.72820    0.60160    0.06750    1.000
    H61      H        0.68510    0.59000    0.08290    1.000
    C110     C        0.72240    0.61320    0.03160    1.000
    H62      H        0.67530    0.60950    0.02230    1.000
    C111     C        0.78550    0.63000    0.00911    1.000
    C112     C        0.85440    0.63530    0.02260    1.000
    H63      H        0.89750    0.64690    0.00730    1.000
    C113     C        0.86020    0.62370    0.05860    1.000
    H64      H        0.90720    0.62730    0.06780    1.000
    C114     C        0.77840    0.65340    0.97060    1.000
    O37      O        0.68890    0.61040    0.95750    1.000
    C115     C        0.92530    0.72600    0.89982    1.000
    H65      H        0.96090    0.71240    0.91060    1.000
    C116     C        0.94350    0.76430    0.86753    1.000
    C117     C        0.02250    0.78900    0.85107    1.000
    O38      O        0.03420    0.81630    0.82005    1.000
    O39      O        0.07200    0.78220    0.86992    1.000
    N14      N        0.46367    0.94013    0.41436    1.000
    C118     C        0.39487    0.93493    0.40083    1.000
    H66      H        0.35177    0.92333    0.41623    1.000
    C119     C        0.38907    0.94653    0.36493    1.000
    H67      H        0.34197    0.94283    0.35563    1.000
    C120     C        0.45217    0.96333    0.34244    1.000
    C121     C        0.52107    0.96863    0.35593    1.000
    H68      H        0.56417    0.98023    0.34063    1.000
    C122     C        0.52687    0.95703    0.39193    1.000
    H69      H        0.57387    0.96063    0.40113    1.000
    C123     C        0.44507    0.98673    0.30393    1.000
    O40      O        0.35557    0.94373    0.29083    1.000
    C124     C        0.59197    0.05933    0.23315    1.000
    H70      H        0.62757    0.04573    0.24393    1.000
    C125     C        0.61017    0.09763    0.20086    1.000
    C126     C        0.68917    0.12233    0.18440    1.000
    O41      O        0.70087    0.14963    0.15338    1.000
    O42      O        0.73867    0.11553    0.20325    1.000
    N15      N        0.13033    0.27347    0.74770    1.000
    C127     C        0.06153    0.26827    0.73417    1.000
    H71      H        0.01843    0.25667    0.74957    1.000
    C128     C        0.05573    0.27987    0.69827    1.000
    H72      H        0.00863    0.27617    0.68897    1.000
    C129     C        0.11883    0.29667    0.67578    1.000
    C130     C        0.18773    0.30197    0.68927    1.000
    H73      H        0.23083    0.31357    0.67397    1.000
    C131     C        0.19353    0.29037    0.72527    1.000
    H74      H        0.24053    0.29397    0.73447    1.000
    C132     C        0.11173    0.32007    0.63727    1.000
    O43      O        0.02223    0.27707    0.62417    1.000
    C133     C        0.25863    0.39267    0.56649    1.000
    H75      H        0.29423    0.37907    0.57727    1.000
    C134     C        0.27683    0.43097    0.53420    1.000
    C135     C        0.35583    0.45567    0.51774    1.000
    O44      O        0.36753    0.48297    0.48672    1.000
    O45      O        0.40533    0.44887    0.53659    1.000
    N16      N        0.80980    0.20300    0.08103    1.000
    C136     C        0.87340    0.27180    0.06750    1.000
    H76      H        0.90490    0.31490    0.08290    1.000
    C137     C        0.89080    0.27760    0.03160    1.000
    H77      H        0.93420    0.32470    0.02230    1.000
    C138     C        0.84450    0.21450    0.00911    1.000
    C139     C        0.78090    0.14560    0.02260    1.000
    H78      H        0.74940    0.10250    0.00730    1.000
    C140     C        0.76350    0.13980    0.05860    1.000
    H79      H        0.72010    0.09280    0.06780    1.000
    C141     C        0.87500    0.22160    0.97060    1.000
    O46      O        0.92150    0.31110    0.95750    1.000
    C142     C        0.80070    0.07470    0.89982    1.000
    H80      H        0.75150    0.03910    0.91060    1.000
    C143     C        0.82080    0.05650    0.86753    1.000
    C144     C        0.76650    0.97750    0.85107    1.000
    O47      O        0.78210    0.96580    0.82005    1.000
    O48      O        0.71020    0.92800    0.86992    1.000
    N17      N        0.47647    0.53633    0.41436    1.000
    C145     C        0.54007    0.60513    0.40083    1.000
    H81      H        0.57157    0.64823    0.41623    1.000
    C146     C        0.55747    0.61093    0.36493    1.000
    H82      H        0.60087    0.65803    0.35563    1.000
    C147     C        0.51117    0.54783    0.34244    1.000
    C148     C        0.44757    0.47893    0.35593    1.000
    H83      H        0.41607    0.43583    0.34063    1.000
    C149     C        0.43017    0.47313    0.39193    1.000
    H84      H        0.38677    0.42613    0.40113    1.000
    C150     C        0.54167    0.55493    0.30393    1.000
    O49      O        0.58817    0.64443    0.29083    1.000
    C151     C        0.46737    0.40803    0.23315    1.000
    H85      H        0.41817    0.37243    0.24393    1.000
    C152     C        0.48747    0.38983    0.20086    1.000
    C153     C        0.43317    0.31083    0.18440    1.000
    O50      O        0.44877    0.29913    0.15338    1.000
    O51      O        0.37687    0.26133    0.20325    1.000
    N18      N        0.14313    0.86967    0.74770    1.000
    C154     C        0.20673    0.93847    0.73417    1.000
    H86      H        0.23823    0.98157    0.74957    1.000
    C155     C        0.22413    0.94427    0.69827    1.000
    H87      H        0.26753    0.99137    0.68897    1.000
    C156     C        0.17783    0.88117    0.67578    1.000
    C157     C        0.11423    0.81227    0.68927    1.000
    H88      H        0.08273    0.76917    0.67397    1.000
    C158     C        0.09683    0.80647    0.72527    1.000
    H89      H        0.05343    0.75947    0.73447    1.000
    C159     C        0.20833    0.88827    0.63727    1.000
    O52      O        0.25483    0.97777    0.62417    1.000
    C160     C        0.13403    0.74137    0.56649    1.000
    H90      H        0.08483    0.70577    0.57727    1.000
    C161     C        0.15413    0.72317    0.53420    1.000
    C162     C        0.09983    0.64417    0.51774    1.000
    O53      O        0.11543    0.63247    0.48672    1.000
    O54      O        0.04353    0.59467    0.53659    1.000
    N19      N        0.80980    0.60680    0.08103    1.000
    C163     C        0.87340    0.60160    0.06750    1.000
    H91      H        0.90490    0.59000    0.08290    1.000
    C164     C        0.89080    0.61320    0.03160    1.000
    H92      H        0.93420    0.60950    0.02230    1.000
    C165     C        0.84450    0.63000    0.00911    1.000
    C166     C        0.78090    0.63530    0.02260    1.000
    H93      H        0.74940    0.64690    0.00730    1.000
    C167     C        0.76350    0.62370    0.05860    1.000
    H94      H        0.72010    0.62730    0.06780    1.000
    C168     C        0.87500    0.65340    0.97060    1.000
    O55      O        0.92150    0.61040    0.95750    1.000
    C169     C        0.80070    0.72600    0.89982    1.000
    H95      H        0.75150    0.71240    0.91060    1.000
    C170     C        0.82080    0.76430    0.86753    1.000
    C171     C        0.76650    0.78900    0.85107    1.000
    O56      O        0.78210    0.81630    0.82005    1.000
    O57      O        0.71020    0.78220    0.86992    1.000
    N20      N        0.47647    0.94013    0.41436    1.000
    C172     C        0.54007    0.93493    0.40083    1.000
    H96      H        0.57157    0.92333    0.41623    1.000
    C173     C        0.55747    0.94653    0.36493    1.000
    H97      H        0.60087    0.94283    0.35563    1.000
    C174     C        0.51117    0.96333    0.34244    1.000
    C175     C        0.44757    0.96863    0.35593    1.000
    H98      H        0.41607    0.98023    0.34063    1.000
    C176     C        0.43017    0.95703    0.39193    1.000
    H99      H        0.38677    0.96063    0.40113    1.000
    C177     C        0.54167    0.98673    0.30393    1.000
    O58      O        0.58817    0.94373    0.29083    1.000
    C178     C        0.46737    0.05933    0.23315    1.000
    H100     H        0.41817    0.04573    0.24393    1.000
    C179     C        0.48747    0.09763    0.20086    1.000
    C180     C        0.43317    0.12233    0.18440    1.000
    O59      O        0.44877    0.14963    0.15338    1.000
    O60      O        0.37687    0.11553    0.20325    1.000
    N21      N        0.14313    0.27347    0.74770    1.000
    C181     C        0.20673    0.26827    0.73417    1.000
    H101     H        0.23823    0.25667    0.74957    1.000
    C182     C        0.22413    0.27987    0.69827    1.000
    H102     H        0.26753    0.27617    0.68897    1.000
    C183     C        0.17783    0.29667    0.67578    1.000
    C184     C        0.11423    0.30197    0.68927    1.000
    H103     H        0.08273    0.31357    0.67397    1.000
    C185     C        0.09683    0.29037    0.72527    1.000
    H104     H        0.05343    0.29397    0.73447    1.000
    C186     C        0.20833    0.32007    0.63727    1.000
    O61      O        0.25483    0.27707    0.62417    1.000
    C187     C        0.13403    0.39267    0.56649    1.000
    H105     H        0.08483    0.37907    0.57727    1.000
    C188     C        0.15413    0.43097    0.53420    1.000
    C189     C        0.09983    0.45567    0.51774    1.000
    O62      O        0.11543    0.48297    0.48672    1.000
    O63      O        0.04353    0.44887    0.53659    1.000
    N22      N        0.39320    0.20300    0.08103    1.000
    C190     C        0.39840    0.27180    0.06750    1.000
    H106     H        0.41000    0.31490    0.08290    1.000
    C191     C        0.38680    0.27760    0.03160    1.000
    H107     H        0.39050    0.32470    0.02230    1.000
    C192     C        0.37000    0.21450    0.00911    1.000
    C193     C        0.36470    0.14560    0.02260    1.000
    H108     H        0.35310    0.10250    0.00730    1.000
    C194     C        0.37630    0.13980    0.05860    1.000
    H109     H        0.37270    0.09280    0.06780    1.000
    C195     C        0.34660    0.22160    0.97060    1.000
    O64      O        0.38960    0.31110    0.95750    1.000
    C196     C        0.27400    0.07470    0.89982    1.000
    H110     H        0.28760    0.03910    0.91060    1.000
    C197     C        0.23570    0.05650    0.86753    1.000
    C198     C        0.21100    0.97750    0.85107    1.000
    O65      O        0.18370    0.96580    0.82005    1.000
    O66      O        0.21780    0.92800    0.86992    1.000
    N23      N        0.05987    0.53633    0.41436    1.000
    C199     C        0.06507    0.60513    0.40083    1.000
    H111     H        0.07667    0.64823    0.41623    1.000
    C200     C        0.05347    0.61093    0.36493    1.000
    H112     H        0.05717    0.65803    0.35563    1.000
    C201     C        0.03667    0.54783    0.34244    1.000
    C202     C        0.03137    0.47893    0.35593    1.000
    H113     H        0.01977    0.43583    0.34063    1.000
    C203     C        0.04297    0.47313    0.39193    1.000
    H114     H        0.03937    0.42613    0.40113    1.000
    C204     C        0.01327    0.55493    0.30393    1.000
    O67      O        0.05627    0.64443    0.29083    1.000
    C205     C        0.94067    0.40803    0.23315    1.000
    H115     H        0.95427    0.37243    0.24393    1.000
    C206     C        0.90237    0.38983    0.20086    1.000
    C207     C        0.87767    0.31083    0.18440    1.000
    O68      O        0.85037    0.29913    0.15338    1.000
    O69      O        0.88447    0.26133    0.20325    1.000
    N24      N        0.72653    0.86967    0.74770    1.000
    C208     C        0.73173    0.93847    0.73417    1.000
    H116     H        0.74333    0.98157    0.74957    1.000
    C209     C        0.72013    0.94427    0.69827    1.000
    H117     H        0.72383    0.99137    0.68897    1.000
    C210     C        0.70333    0.88117    0.67578    1.000
    C211     C        0.69803    0.81227    0.68927    1.000
    H118     H        0.68643    0.76917    0.67397    1.000
    C212     C        0.70963    0.80647    0.72527    1.000
    H119     H        0.70603    0.75947    0.73447    1.000
    C213     C        0.67993    0.88827    0.63727    1.000
    O70      O        0.72293    0.97777    0.62417    1.000
    C214     C        0.60733    0.74137    0.56649    1.000
    H120     H        0.62093    0.70577    0.57727    1.000
    C215     C        0.56903    0.72317    0.53420    1.000
    C216     C        0.54433    0.64417    0.51774    1.000
    O71      O        0.51703    0.63247    0.48672    1.000
    O72      O        0.55113    0.59467    0.53659    1.000
    N25      N        0.79700    0.19020    0.08103    1.000
    C217     C        0.72820    0.12660    0.06750    1.000
    H121     H        0.68510    0.09510    0.08290    1.000
    C218     C        0.72240    0.10920    0.03160    1.000
    H122     H        0.67530    0.06580    0.02230    1.000
    C219     C        0.78550    0.15550    0.00911    1.000
    C220     C        0.85440    0.21910    0.02260    1.000
    H123     H        0.89750    0.25060    0.00730    1.000
    C221     C        0.86020    0.23650    0.05860    1.000
    H124     H        0.90720    0.27990    0.06780    1.000
    C222     C        0.77840    0.12500    0.97060    1.000
    O73      O        0.68890    0.07850    0.95750    1.000
    C223     C        0.92530    0.19930    0.89982    1.000
    H125     H        0.96090    0.24850    0.91060    1.000
    C224     C        0.94350    0.17920    0.86753    1.000
    C225     C        0.02250    0.23350    0.85107    1.000
    O74      O        0.03420    0.21790    0.82005    1.000
    O75      O        0.07200    0.28980    0.86992    1.000
    N26      N        0.46367    0.52353    0.41436    1.000
    C226     C        0.39487    0.45993    0.40083    1.000
    H126     H        0.35177    0.42843    0.41623    1.000
    C227     C        0.38907    0.44253    0.36493    1.000
    H127     H        0.34197    0.39913    0.35563    1.000
    C228     C        0.45217    0.48883    0.34244    1.000
    C229     C        0.52107    0.55243    0.35593    1.000
    H128     H        0.56417    0.58393    0.34063    1.000
    C230     C        0.52687    0.56983    0.39193    1.000
    H129     H        0.57387    0.61323    0.40113    1.000
    C231     C        0.44507    0.45833    0.30393    1.000
    O76      O        0.35557    0.41183    0.29083    1.000
    C232     C        0.59197    0.53263    0.23315    1.000
    H130     H        0.62757    0.58183    0.24393    1.000
    C233     C        0.61017    0.51253    0.20086    1.000
    C234     C        0.68917    0.56683    0.18440    1.000
    O77      O        0.70087    0.55123    0.15338    1.000
    O78      O        0.73867    0.62313    0.20325    1.000
    N27      N        0.13033    0.85687    0.74770    1.000
    C235     C        0.06153    0.79327    0.73417    1.000
    H131     H        0.01843    0.76177    0.74957    1.000
    C236     C        0.05573    0.77587    0.69827    1.000
    H132     H        0.00863    0.73247    0.68897    1.000
    C237     C        0.11883    0.82217    0.67578    1.000
    C238     C        0.18773    0.88577    0.68927    1.000
    H133     H        0.23083    0.91727    0.67397    1.000
    C239     C        0.19353    0.90317    0.72527    1.000
    H134     H        0.24053    0.94657    0.73447    1.000
    C240     C        0.11173    0.79167    0.63727    1.000
    O79      O        0.02223    0.74517    0.62417    1.000
    C241     C        0.25863    0.86597    0.56649    1.000
    H135     H        0.29423    0.91517    0.57727    1.000
    C242     C        0.27683    0.84587    0.53420    1.000
    C243     C        0.35583    0.90017    0.51774    1.000
    O80      O        0.36753    0.88457    0.48672    1.000
    O81      O        0.40533    0.95647    0.53659    1.000
    N28      N        0.60680    0.80980    0.91897    1.000
    C244     C        0.60160    0.87340    0.93250    1.000
    H136     H        0.59000    0.90490    0.91710    1.000
    C245     C        0.61320    0.89080    0.96840    1.000
    H137     H        0.60950    0.93420    0.97770    1.000
    C246     C        0.63000    0.84450    0.99089    1.000
    C247     C        0.63530    0.78090    0.97740    1.000
    H138     H        0.64690    0.74940    0.99270    1.000
    C248     C        0.62370    0.76350    0.94140    1.000
    H139     H        0.62730    0.72010    0.93220    1.000
    C249     C        0.65340    0.87500    0.02940    1.000
    O82      O        0.61040    0.92150    0.04250    1.000
    C250     C        0.72600    0.80070    0.10018    1.000
    H140     H        0.71240    0.75150    0.08940    1.000
    C251     C        0.76430    0.82080    0.13247    1.000
    C252     C        0.78900    0.76650    0.14893    1.000
    O83      O        0.81630    0.78210    0.17995    1.000
    O84      O        0.78220    0.71020    0.13008    1.000
    N29      N        0.27347    0.14313    0.25230    1.000
    C253     C        0.26827    0.20673    0.26583    1.000
    H141     H        0.25667    0.23823    0.25043    1.000
    C254     C        0.27987    0.22413    0.30173    1.000
    H142     H        0.27617    0.26753    0.31103    1.000
    C255     C        0.29667    0.17783    0.32422    1.000
    C256     C        0.30197    0.11423    0.31073    1.000
    H143     H        0.31357    0.08273    0.32603    1.000
    C257     C        0.29037    0.09683    0.27473    1.000
    H144     H        0.29397    0.05343    0.26553    1.000
    C258     C        0.32007    0.20833    0.36273    1.000
    O85      O        0.27707    0.25483    0.37583    1.000
    C259     C        0.39267    0.13403    0.43351    1.000
    H145     H        0.37907    0.08483    0.42273    1.000
    C260     C        0.43097    0.15413    0.46580    1.000
    C261     C        0.45567    0.09983    0.48226    1.000
    O86      O        0.48297    0.11543    0.51328    1.000
    O87      O        0.44887    0.04353    0.46341    1.000
    N30      N        0.94013    0.47647    0.58564    1.000
    C262     C        0.93493    0.54007    0.59917    1.000
    H146     H        0.92333    0.57157    0.58377    1.000
    C263     C        0.94653    0.55747    0.63507    1.000
    H147     H        0.94283    0.60087    0.64437    1.000
    C264     C        0.96333    0.51117    0.65756    1.000
    C265     C        0.96863    0.44757    0.64407    1.000
    H148     H        0.98023    0.41607    0.65937    1.000
    C266     C        0.95703    0.43017    0.60807    1.000
    H149     H        0.96063    0.38677    0.59887    1.000
    C267     C        0.98673    0.54167    0.69607    1.000
    O88      O        0.94373    0.58817    0.70917    1.000
    C268     C        0.05933    0.46737    0.76685    1.000
    H150     H        0.04573    0.41817    0.75607    1.000
    C269     C        0.09763    0.48747    0.79914    1.000
    C270     C        0.12233    0.43317    0.81560    1.000
    O89      O        0.14963    0.44877    0.84662    1.000
    O90      O        0.11553    0.37687    0.79675    1.000
    N31      N        0.20300    0.39320    0.91897    1.000
    C271     C        0.27180    0.39840    0.93250    1.000
    H151     H        0.31490    0.41000    0.91710    1.000
    C272     C        0.27760    0.38680    0.96840    1.000
    H152     H        0.32470    0.39050    0.97770    1.000
    C273     C        0.21450    0.37000    0.99089    1.000
    C274     C        0.14560    0.36470    0.97740    1.000
    H153     H        0.10250    0.35310    0.99270    1.000
    C275     C        0.13980    0.37630    0.94140    1.000
    H154     H        0.09280    0.37270    0.93220    1.000
    C276     C        0.22160    0.34660    0.02940    1.000
    O91      O        0.31110    0.38960    0.04250    1.000
    C277     C        0.07470    0.27400    0.10018    1.000
    H155     H        0.03910    0.28760    0.08940    1.000
    C278     C        0.05650    0.23570    0.13247    1.000
    C279     C        0.97750    0.21100    0.14893    1.000
    O92      O        0.96580    0.18370    0.17995    1.000
    O93      O        0.92800    0.21780    0.13008    1.000
    N32      N        0.86967    0.72653    0.25230    1.000
    C280     C        0.93847    0.73173    0.26583    1.000
    H156     H        0.98157    0.74333    0.25043    1.000
    C281     C        0.94427    0.72013    0.30173    1.000
    H157     H        0.99137    0.72383    0.31103    1.000
    C282     C        0.88117    0.70333    0.32422    1.000
    C283     C        0.81227    0.69803    0.31073    1.000
    H158     H        0.76917    0.68643    0.32603    1.000
    C284     C        0.80647    0.70963    0.27473    1.000
    H159     H        0.75947    0.70603    0.26553    1.000
    C285     C        0.88827    0.67993    0.36273    1.000
    O94      O        0.97777    0.72293    0.37583    1.000
    C286     C        0.74137    0.60733    0.43351    1.000
    H160     H        0.70577    0.62093    0.42273    1.000
    C287     C        0.72317    0.56903    0.46580    1.000
    C288     C        0.64417    0.54433    0.48226    1.000
    O95      O        0.63247    0.51703    0.51328    1.000
    O96      O        0.59467    0.55113    0.46341    1.000
    N33      N        0.53633    0.05987    0.58564    1.000
    C289     C        0.60513    0.06507    0.59917    1.000
    H161     H        0.64823    0.07667    0.58377    1.000
    C290     C        0.61093    0.05347    0.63507    1.000
    H162     H        0.65803    0.05717    0.64437    1.000
    C291     C        0.54783    0.03667    0.65756    1.000
    C292     C        0.47893    0.03137    0.64407    1.000
    H163     H        0.43583    0.01977    0.65937    1.000
    C293     C        0.47313    0.04297    0.60807    1.000
    H164     H        0.42613    0.03937    0.59887    1.000
    C294     C        0.55493    0.01327    0.69607    1.000
    O97      O        0.64443    0.05627    0.70917    1.000
    C295     C        0.40803    0.94067    0.76685    1.000
    H165     H        0.37243    0.95427    0.75607    1.000
    C296     C        0.38983    0.90237    0.79914    1.000
    C297     C        0.31083    0.87767    0.81560    1.000
    O98      O        0.29913    0.85037    0.84662    1.000
    O99      O        0.26133    0.88447    0.79675    1.000
    N34      N        0.19020    0.79700    0.91897    1.000
    C298     C        0.12660    0.72820    0.93250    1.000
    H166     H        0.09510    0.68510    0.91710    1.000
    C299     C        0.10920    0.72240    0.96840    1.000
    H167     H        0.06580    0.67530    0.97770    1.000
    C300     C        0.15550    0.78550    0.99089    1.000
    C301     C        0.21910    0.85440    0.97740    1.000
    H168     H        0.25060    0.89750    0.99270    1.000
    C302     C        0.23650    0.86020    0.94140    1.000
    H169     H        0.27990    0.90720    0.93220    1.000
    C303     C        0.12500    0.77840    0.02940    1.000
    O100     O        0.07850    0.68890    0.04250    1.000
    C304     C        0.19930    0.92530    0.10018    1.000
    H170     H        0.24850    0.96090    0.08940    1.000
    C305     C        0.17920    0.94350    0.13247    1.000
    C306     C        0.23350    0.02250    0.14893    1.000
    O101     O        0.21790    0.03420    0.17995    1.000
    O102     O        0.28980    0.07200    0.13008    1.000
    N35      N        0.85687    0.13033    0.25230    1.000
    C307     C        0.79327    0.06153    0.26583    1.000
    H171     H        0.76177    0.01843    0.25043    1.000
    C308     C        0.77587    0.05573    0.30173    1.000
    H172     H        0.73247    0.00863    0.31103    1.000
    C309     C        0.82217    0.11883    0.32422    1.000
    C310     C        0.88577    0.18773    0.31073    1.000
    H173     H        0.91727    0.23083    0.32603    1.000
    C311     C        0.90317    0.19353    0.27473    1.000
    H174     H        0.94657    0.24053    0.26553    1.000
    C312     C        0.79167    0.11173    0.36273    1.000
    O103     O        0.74517    0.02223    0.37583    1.000
    C313     C        0.86597    0.25863    0.43351    1.000
    H175     H        0.91517    0.29423    0.42273    1.000
    C314     C        0.84587    0.27683    0.46580    1.000
    C315     C        0.90017    0.35583    0.48226    1.000
    O104     O        0.88457    0.36753    0.51328    1.000
    O105     O        0.95647    0.40533    0.46341    1.000
    N36      N        0.52353    0.46367    0.58564    1.000
    C316     C        0.45993    0.39487    0.59917    1.000
    H176     H        0.42843    0.35177    0.58377    1.000
    C317     C        0.44253    0.38907    0.63507    1.000
    H177     H        0.39913    0.34197    0.64437    1.000
    C318     C        0.48883    0.45217    0.65756    1.000
    C319     C        0.55243    0.52107    0.64407    1.000
    H178     H        0.58393    0.56417    0.65937    1.000
    C320     C        0.56983    0.52687    0.60807    1.000
    H179     H        0.61323    0.57387    0.59887    1.000
    C321     C        0.45833    0.44507    0.69607    1.000
    O106     O        0.41183    0.35557    0.70917    1.000
    C322     C        0.53263    0.59197    0.76685    1.000
    H180     H        0.58183    0.62757    0.75607    1.000
    C323     C        0.51253    0.61017    0.79914    1.000
    C324     C        0.56683    0.68917    0.81560    1.000
    O107     O        0.55123    0.70087    0.84662    1.000
    O108     O        0.62313    0.73867    0.79675    1.000
    Co1      Co       0.18883    0.37767    0.86491    1.000
    C325     C        0.14645    0.29290    0.08340    1.000
    C326     C        0.10905    0.21810    0.14930    1.000
    H181     H        0.09710    0.19420    0.17200    1.000
    N37      N        0.16475    0.32950    0.04910    1.000
    Co2      Co       0.85550    0.71100    0.19824    1.000
    C327     C        0.81312    0.62623    0.41673    1.000
    C328     C        0.77572    0.55143    0.48263    1.000
    H182     H        0.76377    0.52753    0.50533    1.000
    N38      N        0.83142    0.66283    0.38243    1.000
    Co3      Co       0.52217    0.04434    0.53158    1.000
    C329     C        0.47978    0.95957    0.75007    1.000
    C330     C        0.44238    0.88477    0.81597    1.000
    H183     H        0.43043    0.86087    0.83867    1.000
    N39      N        0.49808    0.99617    0.71577    1.000
    Co4      Co       0.62233    0.81117    0.86491    1.000
    C331     C        0.70710    0.85355    0.08340    1.000
    C332     C        0.78190    0.89095    0.14930    1.000
    H184     H        0.80580    0.90290    0.17200    1.000
    N40      N        0.67050    0.83525    0.04910    1.000
    Co5      Co       0.28900    0.14450    0.19824    1.000
    C333     C        0.37377    0.18688    0.41673    1.000
    C334     C        0.44857    0.22428    0.48263    1.000
    H185     H        0.47247    0.23623    0.50533    1.000
    N41      N        0.33717    0.16858    0.38243    1.000
    Co6      Co       0.95566    0.47783    0.53158    1.000
    C335     C        0.04043    0.52022    0.75007    1.000
    C336     C        0.11523    0.55762    0.81597    1.000
    H186     H        0.13913    0.56957    0.83867    1.000
    N42      N        0.00383    0.50192    0.71577    1.000
    Co7      Co       0.18883    0.81117    0.86491    1.000
    C337     C        0.14645    0.85355    0.08340    1.000
    C338     C        0.10905    0.89095    0.14930    1.000
    H187     H        0.09710    0.90290    0.17200    1.000
    N43      N        0.16475    0.83525    0.04910    1.000
    Co8      Co       0.85550    0.14450    0.19824    1.000
    C339     C        0.81312    0.18688    0.41673    1.000
    C340     C        0.77572    0.22428    0.48263    1.000
    H188     H        0.76377    0.23623    0.50533    1.000
    N44      N        0.83142    0.16858    0.38243    1.000
    Co9      Co       0.52217    0.47783    0.53158    1.000
    C341     C        0.47978    0.52022    0.75007    1.000
    C342     C        0.44238    0.55762    0.81597    1.000
    H189     H        0.43043    0.56957    0.83867    1.000
    N45      N        0.49808    0.50192    0.71577    1.000
    Co10     Co       0.37767    0.18883    0.13509    1.000
    C343     C        0.29290    0.14645    0.91660    1.000
    C344     C        0.21810    0.10905    0.85070    1.000
    H190     H        0.19420    0.09710    0.82800    1.000
    N46      N        0.32950    0.16475    0.95090    1.000
    Co11     Co       0.04434    0.52217    0.46842    1.000
    C345     C        0.95957    0.47978    0.24993    1.000
    C346     C        0.88477    0.44238    0.18403    1.000
    H191     H        0.86087    0.43043    0.16133    1.000
    N47      N        0.99617    0.49808    0.28423    1.000
    Co12     Co       0.71100    0.85550    0.80176    1.000
    C347     C        0.62623    0.81312    0.58327    1.000
    C348     C        0.55143    0.77572    0.51737    1.000
    H192     H        0.52753    0.76377    0.49467    1.000
    N48      N        0.66283    0.83142    0.61757    1.000
    Co13     Co       0.81117    0.62233    0.13509    1.000
    C349     C        0.85355    0.70710    0.91660    1.000
    C350     C        0.89095    0.78190    0.85070    1.000
    H193     H        0.90290    0.80580    0.82800    1.000
    N49      N        0.83525    0.67050    0.95090    1.000
    Co14     Co       0.47783    0.95566    0.46842    1.000
    C351     C        0.52022    0.04043    0.24993    1.000
    C352     C        0.55762    0.11523    0.18403    1.000
    H194     H        0.56957    0.13913    0.16133    1.000
    N50      N        0.50192    0.00383    0.28423    1.000
    Co15     Co       0.14450    0.28900    0.80176    1.000
    C353     C        0.18688    0.37377    0.58327    1.000
    C354     C        0.22428    0.44857    0.51737    1.000
    H195     H        0.23623    0.47247    0.49467    1.000
    N51      N        0.16858    0.33717    0.61757    1.000
    Co16     Co       0.81117    0.18883    0.13509    1.000
    C355     C        0.85355    0.14645    0.91660    1.000
    C356     C        0.89095    0.10905    0.85070    1.000
    H196     H        0.90290    0.09710    0.82800    1.000
    N52      N        0.83525    0.16475    0.95090    1.000
    Co17     Co       0.47783    0.52217    0.46842    1.000
    C357     C        0.52022    0.47978    0.24993    1.000
    C358     C        0.55762    0.44238    0.18403    1.000
    H197     H        0.56957    0.43043    0.16133    1.000
    N53      N        0.50192    0.49808    0.28423    1.000
    Co18     Co       0.14450    0.85550    0.80176    1.000
    C359     C        0.18688    0.81312    0.58327    1.000
    C360     C        0.22428    0.77572    0.51737    1.000
    H198     H        0.23623    0.76377    0.49467    1.000
    N54      N        0.16858    0.83142    0.61757    1.000
