# CIF file generated by openbabel 3.1.0, see https://openbabel.org
data_I
_chemical_name_common 'image0'
_cell_length_a 9.2769
_cell_length_b 14.7984
_cell_length_c 14.6106
_cell_angle_alpha 90
_cell_angle_beta 90
_cell_angle_gamma 90
_space_group_name_H-M_alt 'P 1'
_space_group_name_Hall 'P 1'
loop_
    _symmetry_equiv_pos_as_xyz
    x,y,z
loop_
    _atom_site_label
    _atom_site_type_symbol
    _atom_site_fract_x
    _atom_site_fract_y
    _atom_site_fract_z
    _atom_site_occupancy
    P1       P        0.14820    0.13343    0.10310    1.000
    Al1      Al       0.14260    0.34700    0.11500    1.000
    O1       O        0.96670    0.35920    0.16380    1.000
    O2       O        0.72790    0.92170    0.16630    1.000
    O3       O        0.25620    0.06680    0.13970    1.000
    O4       O        0.12700    0.11490    0.00070    1.000
    O5       O        0.00260    0.12060    0.14900    1.000
    O6       O        0.19830    0.23080    0.11670    1.000
    P2       P        0.85180    0.86657    0.60310    1.000
    Al2      Al       0.85740    0.65300    0.61500    1.000
    O7       O        0.03330    0.64080    0.66380    1.000
    O8       O        0.27210    0.07830    0.66630    1.000
    O9       O        0.74380    0.93320    0.63970    1.000
    O10      O        0.87300    0.88510    0.50070    1.000
    O11      O        0.99740    0.87940    0.64900    1.000
    O12      O        0.80170    0.76920    0.61670    1.000
    P3       P        0.85180    0.63343    0.39690    1.000
    Al3      Al       0.85740    0.84700    0.38500    1.000
    O13      O        0.03330    0.85920    0.33620    1.000
    O14      O        0.27210    0.42170    0.33370    1.000
    O15      O        0.74380    0.56680    0.36030    1.000
    O16      O        0.87300    0.61490    0.49930    1.000
    O17      O        0.99740    0.62060    0.35100    1.000
    O18      O        0.80170    0.73080    0.38330    1.000
    P4       P        0.14820    0.36657    0.89690    1.000
    Al4      Al       0.14260    0.15300    0.88500    1.000
    O19      O        0.96670    0.14080    0.83620    1.000
    O20      O        0.72790    0.57830    0.83370    1.000
    O21      O        0.25620    0.43320    0.86030    1.000
    O22      O        0.12700    0.38510    0.99930    1.000
    O23      O        0.00260    0.37940    0.85100    1.000
    O24      O        0.19830    0.26920    0.88330    1.000
    P5       P        0.85180    0.86657    0.89690    1.000
    Al5      Al       0.85740    0.65300    0.88500    1.000
    O25      O        0.03330    0.64080    0.83620    1.000
    O26      O        0.27210    0.07830    0.83370    1.000
    O27      O        0.74380    0.93320    0.86030    1.000
    O28      O        0.87300    0.88510    0.99930    1.000
    O29      O        0.99740    0.87940    0.85100    1.000
    O30      O        0.80170    0.76920    0.88330    1.000
    P6       P        0.14820    0.13343    0.39690    1.000
    Al6      Al       0.14260    0.34700    0.38500    1.000
    O31      O        0.96670    0.35920    0.33620    1.000
    O32      O        0.72790    0.92170    0.33370    1.000
    O33      O        0.25620    0.06680    0.36030    1.000
    O34      O        0.12700    0.11490    0.49930    1.000
    O35      O        0.00260    0.12060    0.35100    1.000
    O36      O        0.19830    0.23080    0.38330    1.000
    P7       P        0.14820    0.36657    0.60310    1.000
    Al7      Al       0.14260    0.15300    0.61500    1.000
    O37      O        0.96670    0.14080    0.66380    1.000
    O38      O        0.72790    0.57830    0.66630    1.000
    O39      O        0.25620    0.43320    0.63970    1.000
    O40      O        0.12700    0.38510    0.50070    1.000
    O41      O        0.00260    0.37940    0.64900    1.000
    O42      O        0.19830    0.26920    0.61670    1.000
    P8       P        0.85180    0.63343    0.10310    1.000
    Al8      Al       0.85740    0.84700    0.11500    1.000
    O43      O        0.03330    0.85920    0.16380    1.000
    O44      O        0.27210    0.42170    0.16630    1.000
    O45      O        0.74380    0.56680    0.13970    1.000
    O46      O        0.87300    0.61490    0.00070    1.000
    O47      O        0.99740    0.62060    0.14900    1.000
    O48      O        0.80170    0.73080    0.11670    1.000
    P9       P        0.87650    0.34300    0.25000    1.000
    P10      P        0.68200    0.97210    0.25000    1.000
    Al9      Al       0.90150    0.13560    0.25000    1.000
    Al10     Al       0.33230    0.02040    0.25000    1.000
    Mg1      Mg       0.66770    0.52040    0.25000    1.000
    O49      O        0.82560    0.24440    0.25000    1.000
    O50      O        0.74710    0.40180    0.25000    1.000
    O51      O        0.75590    0.06160    0.25000    1.000
    O52      O        0.52650    0.98620    0.25000    1.000
    P11      P        0.12350    0.65700    0.75000    1.000
    P12      P        0.31800    0.02790    0.75000    1.000
    Al11     Al       0.09850    0.86440    0.75000    1.000
    Al12     Al       0.66770    0.97960    0.75000    1.000
    Mg2      Mg       0.33230    0.47960    0.75000    1.000
    O53      O        0.17440    0.75560    0.75000    1.000
    O54      O        0.25290    0.59820    0.75000    1.000
    O55      O        0.24410    0.93840    0.75000    1.000
    O56      O        0.47350    0.01380    0.75000    1.000
    P13      P        0.12350    0.84300    0.25000    1.000
    P14      P        0.31800    0.47210    0.25000    1.000
    Al13     Al       0.09850    0.63560    0.25000    1.000
    O57      O        0.17440    0.74440    0.25000    1.000
    O58      O        0.25290    0.90180    0.25000    1.000
    O59      O        0.24410    0.56160    0.25000    1.000
    O60      O        0.47350    0.48620    0.25000    1.000
    P15      P        0.87650    0.15700    0.75000    1.000
    P16      P        0.68200    0.52790    0.75000    1.000
    Al14     Al       0.90150    0.36440    0.75000    1.000
    O61      O        0.82560    0.25560    0.75000    1.000
    O62      O        0.74710    0.09820    0.75000    1.000
    O63      O        0.75590    0.43840    0.75000    1.000
    O64      O        0.52650    0.51380    0.75000    1.000
