# CIF file generated by openbabel 3.1.0, see https://openbabel.org
data_I
_chemical_name_common 'image0'
_cell_length_a 5.5871
_cell_length_b 25.9462
_cell_length_c 17.4983
_cell_angle_alpha 90
_cell_angle_beta 96.031
_cell_angle_gamma 90
_space_group_name_H-M_alt 'P 1'
_space_group_name_Hall 'P 1'
loop_
    _symmetry_equiv_pos_as_xyz
    x,y,z
loop_
    _atom_site_label
    _atom_site_type_symbol
    _atom_site_fract_x
    _atom_site_fract_y
    _atom_site_fract_z
    _atom_site_occupancy
    Zn1      Zn       0.89206    0.47323    0.42807    1.000
    O1       O        0.71300    0.54098    0.41684    1.000
    O2       O        0.82990    0.57555    0.53239    1.000
    O3       O        0.26420    0.55616    0.48002    1.000
    O4       O        0.14660    0.51183    0.37262    1.000
    O5       O        0.68550    0.81304    0.34467    1.000
    O6       O        0.99380    0.75740    0.21130    1.000
    N1       N        0.23380    0.92238    0.15426    1.000
    N2       N        0.34300    0.78447    0.27760    1.000
    C1       C        0.42780    0.89310    0.14590    1.000
    H1       H        0.53460    0.90330    0.11150    1.000
    C2       C        0.47230    0.84804    0.18750    1.000
    H2       H        0.60660    0.82800    0.18080    1.000
    C3       C        0.31440    0.83331    0.23890    1.000
    C4       C        0.12200    0.86450    0.25030    1.000
    H3       H        0.01840    0.85620    0.28670    1.000
    C5       C        0.08710    0.90847    0.20630    1.000
    H4       H        0.95580    0.92940    0.21300    1.000
    C6       C        0.54550    0.77753    0.33010    1.000
    C7       C        0.57370    0.72632    0.36740    1.000
    C8       C        0.40830    0.68654    0.34650    1.000
    C9       C        0.20880    0.69565    0.29150    1.000
    C10      C        0.16740    0.74703    0.25640    1.000
    C11      C        0.76390    0.71831    0.42150    1.000
    H5       H        0.87040    0.74510    0.43550    1.000
    C12      C        0.79910    0.66982    0.45600    1.000
    H6       H        0.92840    0.66480    0.49320    1.000
    C13      C        0.64480    0.62939    0.43560    1.000
    C14      C        0.43850    0.63706    0.38190    1.000
    C15      C        0.25970    0.59885    0.36150    1.000
    C16      C        0.07680    0.60826    0.30520    1.000
    H7       H        0.96790    0.58210    0.29020    1.000
    C17      C        0.05020    0.65699    0.26920    1.000
    H8       H        0.92540    0.66270    0.23070    1.000
    C18      C        0.72970    0.57693    0.46500    1.000
    C19      C        0.23010    0.55090    0.40840    1.000
    Zn2      Zn       0.10794    0.97323    0.07193    1.000
    O7       O        0.28700    0.04098    0.08316    1.000
    O8       O        0.17010    0.07555    0.96761    1.000
    O9       O        0.73580    0.05616    0.01998    1.000
    O10      O        0.85340    0.01183    0.12738    1.000
    O11      O        0.31450    0.31304    0.15533    1.000
    O12      O        0.00620    0.25740    0.28870    1.000
    N3       N        0.76620    0.42238    0.34574    1.000
    N4       N        0.65700    0.28447    0.22240    1.000
    C20      C        0.57220    0.39310    0.35410    1.000
    H9       H        0.46540    0.40330    0.38850    1.000
    C21      C        0.52770    0.34804    0.31250    1.000
    H10      H        0.39340    0.32800    0.31920    1.000
    C22      C        0.68560    0.33331    0.26110    1.000
    C23      C        0.87800    0.36450    0.24970    1.000
    H11      H        0.98160    0.35620    0.21330    1.000
    C24      C        0.91290    0.40847    0.29370    1.000
    H12      H        0.04420    0.42940    0.28700    1.000
    C25      C        0.45450    0.27753    0.16990    1.000
    C26      C        0.42630    0.22632    0.13260    1.000
    C27      C        0.59170    0.18654    0.15350    1.000
    C28      C        0.79120    0.19565    0.20850    1.000
    C29      C        0.83260    0.24703    0.24360    1.000
    C30      C        0.23610    0.21831    0.07850    1.000
    H13      H        0.12960    0.24510    0.06450    1.000
    C31      C        0.20090    0.16982    0.04400    1.000
    H14      H        0.07160    0.16480    0.00680    1.000
    C32      C        0.35520    0.12939    0.06440    1.000
    C33      C        0.56150    0.13706    0.11810    1.000
    C34      C        0.74030    0.09885    0.13850    1.000
    C35      C        0.92320    0.10826    0.19480    1.000
    H15      H        0.03210    0.08210    0.20980    1.000
    C36      C        0.94980    0.15699    0.23080    1.000
    H16      H        0.07460    0.16270    0.26930    1.000
    C37      C        0.27030    0.07693    0.03500    1.000
    C38      C        0.76990    0.05090    0.09160    1.000
    Zn3      Zn       0.10794    0.52677    0.57193    1.000
    O13      O        0.28700    0.45902    0.58316    1.000
    O14      O        0.17010    0.42445    0.46761    1.000
    O15      O        0.73580    0.44384    0.51998    1.000
    O16      O        0.85340    0.48817    0.62738    1.000
    O17      O        0.31450    0.18696    0.65533    1.000
    O18      O        0.00620    0.24260    0.78870    1.000
    N5       N        0.76620    0.07762    0.84574    1.000
    N6       N        0.65700    0.21553    0.72240    1.000
    C39      C        0.57220    0.10690    0.85410    1.000
    H17      H        0.46540    0.09670    0.88850    1.000
    C40      C        0.52770    0.15196    0.81250    1.000
    H18      H        0.39340    0.17200    0.81920    1.000
    C41      C        0.68560    0.16669    0.76110    1.000
    C42      C        0.87800    0.13550    0.74970    1.000
    H19      H        0.98160    0.14380    0.71330    1.000
    C43      C        0.91290    0.09153    0.79370    1.000
    H20      H        0.04420    0.07060    0.78700    1.000
    C44      C        0.45450    0.22247    0.66990    1.000
    C45      C        0.42630    0.27368    0.63260    1.000
    C46      C        0.59170    0.31346    0.65350    1.000
    C47      C        0.79120    0.30435    0.70850    1.000
    C48      C        0.83260    0.25297    0.74360    1.000
    C49      C        0.23610    0.28169    0.57850    1.000
    H21      H        0.12960    0.25490    0.56450    1.000
    C50      C        0.20090    0.33018    0.54400    1.000
    H22      H        0.07160    0.33520    0.50680    1.000
    C51      C        0.35520    0.37061    0.56440    1.000
    C52      C        0.56150    0.36294    0.61810    1.000
    C53      C        0.74030    0.40115    0.63850    1.000
    C54      C        0.92320    0.39174    0.69480    1.000
    H23      H        0.03210    0.41790    0.70980    1.000
    C55      C        0.94980    0.34301    0.73080    1.000
    H24      H        0.07460    0.33730    0.76930    1.000
    C56      C        0.27030    0.42307    0.53500    1.000
    C57      C        0.76990    0.44910    0.59160    1.000
    Zn4      Zn       0.89206    0.02677    0.92807    1.000
    O19      O        0.71300    0.95902    0.91684    1.000
    O20      O        0.82990    0.92445    0.03239    1.000
    O21      O        0.26420    0.94384    0.98002    1.000
    O22      O        0.14660    0.98817    0.87262    1.000
    O23      O        0.68550    0.68696    0.84467    1.000
    O24      O        0.99380    0.74260    0.71130    1.000
    N7       N        0.23380    0.57762    0.65426    1.000
    N8       N        0.34300    0.71553    0.77760    1.000
    C58      C        0.42780    0.60690    0.64590    1.000
    H25      H        0.53460    0.59670    0.61150    1.000
    C59      C        0.47230    0.65196    0.68750    1.000
    H26      H        0.60660    0.67200    0.68080    1.000
    C60      C        0.31440    0.66669    0.73890    1.000
    C61      C        0.12200    0.63550    0.75030    1.000
    H27      H        0.01840    0.64380    0.78670    1.000
    C62      C        0.08710    0.59153    0.70630    1.000
    H28      H        0.95580    0.57060    0.71300    1.000
    C63      C        0.54550    0.72247    0.83010    1.000
    C64      C        0.57370    0.77368    0.86740    1.000
    C65      C        0.40830    0.81346    0.84650    1.000
    C66      C        0.20880    0.80435    0.79150    1.000
    C67      C        0.16740    0.75297    0.75640    1.000
    C68      C        0.76390    0.78169    0.92150    1.000
    H29      H        0.87040    0.75490    0.93550    1.000
    C69      C        0.79910    0.83018    0.95600    1.000
    H30      H        0.92840    0.83520    0.99320    1.000
    C70      C        0.64480    0.87061    0.93560    1.000
    C71      C        0.43850    0.86294    0.88190    1.000
    C72      C        0.25970    0.90115    0.86150    1.000
    C73      C        0.07680    0.89174    0.80520    1.000
    H31      H        0.96790    0.91790    0.79020    1.000
    C74      C        0.05020    0.84301    0.76920    1.000
    H32      H        0.92540    0.83730    0.73070    1.000
    C75      C        0.72970    0.92307    0.96500    1.000
    C76      C        0.23010    0.94910    0.90840    1.000
