# CIF file generated by openbabel 3.1.0, see https://openbabel.org
data_I
_chemical_name_common 'image0'
_cell_length_a 9.655
_cell_length_b 9.344
_cell_length_c 30.965
_cell_angle_alpha 90
_cell_angle_beta 93.859
_cell_angle_gamma 90
_space_group_name_H-M_alt 'P 1'
_space_group_name_Hall 'P 1'
loop_
    _symmetry_equiv_pos_as_xyz
    x,y,z
loop_
    _atom_site_label
    _atom_site_type_symbol
    _atom_site_fract_x
    _atom_site_fract_y
    _atom_site_fract_z
    _atom_site_occupancy
    Zn1      Zn       0.53047    0.28510    0.14095    1.000
    Zn2      Zn       0.70144    0.54825    0.03817    1.000
    Zn3      Zn       0.44079    0.31141    0.30764    1.000
    P1       P        0.46114    0.12142    0.22151    1.000
    P2       P        0.74526    0.07250    0.18290    1.000
    P3       P        0.41330    0.37673    0.05168    1.000
    P4       P        0.51896    0.61306    0.11199    1.000
    O1       O        0.40840    0.21570    0.18378    1.000
    O2       O        0.40150    0.16910    0.26313    1.000
    O3       O        0.43170    0.96160    0.21295    1.000
    O4       O        0.67570    0.14360    0.14249    1.000
    O5       O        0.72820    0.91010    0.18154    1.000
    O6       O        0.89570    0.11490    0.19106    1.000
    O7       O        0.69040    0.28780    0.22954    1.000
    H1       H        0.64850    0.33040    0.24780    1.000
    O8       O        0.41330    0.26230    0.08650    1.000
    O9       O        0.55650    0.39570    0.03404    1.000
    O10      O        0.30210    0.34730    0.01562    1.000
    O11      O        0.46720    0.73570    0.13919    1.000
    O12      O        0.57190    0.48780    0.13949    1.000
    O13      O        0.62580    0.66880    0.08224    1.000
    O14      O        0.32580    0.65400    0.04550    1.000
    H2       H        0.36180    0.63610    0.02290    1.000
    N1       N        0.03670    0.88820    0.29854    1.000
    H3       H        0.06950    0.80270    0.29960    1.000
    N2       N        0.88060    0.45270    0.05946    1.000
    C1       C        0.65180    0.13950    0.22925    1.000
    C2       C        0.69360    0.06180    0.27236    1.000
    H4       H        0.65370    0.11420    0.29550    1.000
    H5       H        0.65090    0.96780    0.27120    1.000
    C3       C        0.84550    0.04280    0.28431    1.000
    C4       C        0.93250    0.15650    0.29615    1.000
    H6       H        0.89730    0.24920    0.29560    1.000
    C5       C        0.07040    0.13390    0.30880    1.000
    H7       H        0.12810    0.21040    0.31690    1.000
    C6       C        0.12070    0.99740    0.30930    1.000
    H8       H        0.21400    0.98050    0.31710    1.000
    C7       C        0.90310    0.90790    0.28619    1.000
    H9       H        0.84780    0.82900    0.27870    1.000
    C8       C        0.36760    0.54740    0.07770    1.000
    C9       C        0.24500    0.53190    0.10713    1.000
    H10      H        0.28080    0.48590    0.13370    1.000
    H11      H        0.21680    0.62760    0.11480    1.000
    C10      C        0.11490    0.45160    0.09123    1.000
    C11      C        0.09620    0.30950    0.10302    1.000
    H12      H        0.16770    0.26090    0.11840    1.000
    C12      C        0.97270    0.23990    0.09220    1.000
    H13      H        0.96100    0.14420    0.09930    1.000
    C13      C        0.86690    0.31570    0.07050    1.000
    H14      H        0.78300    0.26970    0.06340    1.000
    C14      C        0.00350    0.51840    0.06961    1.000
    H15      H        0.01320    0.61360    0.06160    1.000
    Zn4      Zn       0.46953    0.78510    0.35905    1.000
    Zn5      Zn       0.29856    0.04825    0.46183    1.000
    Zn6      Zn       0.55921    0.81141    0.19236    1.000
    P5       P        0.53886    0.62142    0.27849    1.000
    P6       P        0.25474    0.57250    0.31710    1.000
    P7       P        0.58670    0.87673    0.44832    1.000
    P8       P        0.48104    0.11306    0.38801    1.000
    O15      O        0.59160    0.71570    0.31622    1.000
    O16      O        0.59850    0.66910    0.23687    1.000
    O17      O        0.56830    0.46160    0.28705    1.000
    O18      O        0.32430    0.64360    0.35751    1.000
    O19      O        0.27180    0.41010    0.31846    1.000
    O20      O        0.10430    0.61490    0.30894    1.000
    O21      O        0.30960    0.78780    0.27046    1.000
    H16      H        0.35150    0.83040    0.25220    1.000
    O22      O        0.58670    0.76230    0.41350    1.000
    O23      O        0.44350    0.89570    0.46596    1.000
    O24      O        0.69790    0.84730    0.48438    1.000
    O25      O        0.53280    0.23570    0.36081    1.000
    O26      O        0.42810    0.98780    0.36051    1.000
    O27      O        0.37420    0.16880    0.41776    1.000
    O28      O        0.67420    0.15400    0.45450    1.000
    H17      H        0.63820    0.13610    0.47710    1.000
    N3       N        0.96330    0.38820    0.20146    1.000
    H18      H        0.93050    0.30270    0.20040    1.000
    N4       N        0.11940    0.95270    0.44054    1.000
    C15      C        0.34820    0.63950    0.27075    1.000
    C16      C        0.30640    0.56180    0.22764    1.000
    H19      H        0.34630    0.61420    0.20450    1.000
    H20      H        0.34910    0.46780    0.22880    1.000
    C17      C        0.15450    0.54280    0.21569    1.000
    C18      C        0.06750    0.65650    0.20385    1.000
    H21      H        0.10270    0.74920    0.20440    1.000
    C19      C        0.92960    0.63390    0.19120    1.000
    H22      H        0.87190    0.71040    0.18310    1.000
    C20      C        0.87930    0.49740    0.19070    1.000
    H23      H        0.78600    0.48050    0.18290    1.000
    C21      C        0.09690    0.40790    0.21381    1.000
    H24      H        0.15220    0.32900    0.22130    1.000
    C22      C        0.63240    0.04740    0.42230    1.000
    C23      C        0.75500    0.03190    0.39287    1.000
    H25      H        0.71920    0.98590    0.36630    1.000
    H26      H        0.78320    0.12760    0.38520    1.000
    C24      C        0.88510    0.95160    0.40877    1.000
    C25      C        0.90380    0.80950    0.39698    1.000
    H27      H        0.83230    0.76090    0.38160    1.000
    C26      C        0.02730    0.73990    0.40780    1.000
    H28      H        0.03900    0.64420    0.40070    1.000
    C27      C        0.13310    0.81570    0.42950    1.000
    H29      H        0.21700    0.76970    0.43660    1.000
    C28      C        0.99650    0.01840    0.43039    1.000
    H30      H        0.98680    0.11360    0.43840    1.000
    Zn7      Zn       0.46953    0.71490    0.85904    1.000
    Zn8      Zn       0.29856    0.45175    0.96183    1.000
    Zn9      Zn       0.55921    0.68859    0.69236    1.000
    P9       P        0.53886    0.87858    0.77849    1.000
    P10      P        0.25474    0.92750    0.81710    1.000
    P11      P        0.58670    0.62327    0.94832    1.000
    P12      P        0.48104    0.38694    0.88801    1.000
    O29      O        0.59160    0.78430    0.81622    1.000
    O30      O        0.59850    0.83090    0.73687    1.000
    O31      O        0.56830    0.03840    0.78705    1.000
    O32      O        0.32430    0.85640    0.85751    1.000
    O33      O        0.27180    0.08990    0.81846    1.000
    O34      O        0.10430    0.88510    0.80894    1.000
    O35      O        0.30960    0.71220    0.77046    1.000
    H31      H        0.35150    0.66960    0.75220    1.000
    O36      O        0.58670    0.73770    0.91350    1.000
    O37      O        0.44350    0.60430    0.96596    1.000
    O38      O        0.69790    0.65270    0.98438    1.000
    O39      O        0.53280    0.26430    0.86081    1.000
    O40      O        0.42810    0.51220    0.86051    1.000
    O41      O        0.37420    0.33120    0.91776    1.000
    O42      O        0.67420    0.34600    0.95450    1.000
    H32      H        0.63820    0.36390    0.97710    1.000
    N5       N        0.96330    0.11180    0.70146    1.000
    H33      H        0.93050    0.19730    0.70040    1.000
    N6       N        0.11940    0.54730    0.94054    1.000
    C29      C        0.34820    0.86050    0.77075    1.000
    C30      C        0.30640    0.93820    0.72764    1.000
    H34      H        0.34630    0.88580    0.70450    1.000
    H35      H        0.34910    0.03220    0.72880    1.000
    C31      C        0.15450    0.95720    0.71569    1.000
    C32      C        0.06750    0.84350    0.70385    1.000
    H36      H        0.10270    0.75080    0.70440    1.000
    C33      C        0.92960    0.86610    0.69120    1.000
    H37      H        0.87190    0.78960    0.68310    1.000
    C34      C        0.87930    0.00260    0.69070    1.000
    H38      H        0.78600    0.01950    0.68290    1.000
    C35      C        0.09690    0.09210    0.71381    1.000
    H39      H        0.15220    0.17100    0.72130    1.000
    C36      C        0.63240    0.45260    0.92230    1.000
    C37      C        0.75500    0.46810    0.89287    1.000
    H40      H        0.71920    0.51410    0.86630    1.000
    H41      H        0.78320    0.37240    0.88520    1.000
    C38      C        0.88510    0.54840    0.90877    1.000
    C39      C        0.90380    0.69050    0.89698    1.000
    H42      H        0.83230    0.73910    0.88160    1.000
    C40      C        0.02730    0.76010    0.90780    1.000
    H43      H        0.03900    0.85580    0.90070    1.000
    C41      C        0.13310    0.68430    0.92950    1.000
    H44      H        0.21700    0.73030    0.93660    1.000
    C42      C        0.99650    0.48160    0.93039    1.000
    H45      H        0.98680    0.38640    0.93840    1.000
    Zn10     Zn       0.53047    0.21490    0.64096    1.000
    Zn11     Zn       0.70144    0.95175    0.53817    1.000
    Zn12     Zn       0.44079    0.18859    0.80764    1.000
    P13      P        0.46114    0.37858    0.72151    1.000
    P14      P        0.74526    0.42750    0.68290    1.000
    P15      P        0.41330    0.12327    0.55168    1.000
    P16      P        0.51896    0.88694    0.61199    1.000
    O43      O        0.40840    0.28430    0.68378    1.000
    O44      O        0.40150    0.33090    0.76313    1.000
    O45      O        0.43170    0.53840    0.71295    1.000
    O46      O        0.67570    0.35640    0.64249    1.000
    O47      O        0.72820    0.58990    0.68154    1.000
    O48      O        0.89570    0.38510    0.69106    1.000
    O49      O        0.69040    0.21220    0.72954    1.000
    H46      H        0.64850    0.16960    0.74780    1.000
    O50      O        0.41330    0.23770    0.58650    1.000
    O51      O        0.55650    0.10430    0.53404    1.000
    O52      O        0.30210    0.15270    0.51562    1.000
    O53      O        0.46720    0.76430    0.63919    1.000
    O54      O        0.57190    0.01220    0.63949    1.000
    O55      O        0.62580    0.83120    0.58224    1.000
    O56      O        0.32580    0.84600    0.54550    1.000
    H47      H        0.36180    0.86390    0.52290    1.000
    N7       N        0.03670    0.61180    0.79854    1.000
    H48      H        0.06950    0.69730    0.79960    1.000
    N8       N        0.88060    0.04730    0.55946    1.000
    C43      C        0.65180    0.36050    0.72925    1.000
    C44      C        0.69360    0.43820    0.77236    1.000
    H49      H        0.65370    0.38580    0.79550    1.000
    H50      H        0.65090    0.53220    0.77120    1.000
    C45      C        0.84550    0.45720    0.78431    1.000
    C46      C        0.93250    0.34350    0.79615    1.000
    H51      H        0.89730    0.25080    0.79560    1.000
    C47      C        0.07040    0.36610    0.80880    1.000
    H52      H        0.12810    0.28960    0.81690    1.000
    C48      C        0.12070    0.50260    0.80930    1.000
    H53      H        0.21400    0.51950    0.81710    1.000
    C49      C        0.90310    0.59210    0.78619    1.000
    H54      H        0.84780    0.67100    0.77870    1.000
    C50      C        0.36760    0.95260    0.57770    1.000
    C51      C        0.24500    0.96810    0.60713    1.000
    H55      H        0.28080    0.01410    0.63370    1.000
    H56      H        0.21680    0.87240    0.61480    1.000
    C52      C        0.11490    0.04840    0.59123    1.000
    C53      C        0.09620    0.19050    0.60302    1.000
    H57      H        0.16770    0.23910    0.61840    1.000
    C54      C        0.97270    0.26010    0.59220    1.000
    H58      H        0.96100    0.35580    0.59930    1.000
    C55      C        0.86690    0.18430    0.57050    1.000
    H59      H        0.78300    0.23030    0.56340    1.000
    C56      C        0.00350    0.98160    0.56961    1.000
    H60      H        0.01320    0.88640    0.56160    1.000
