# CIF file generated by openbabel 3.1.0, see https://openbabel.org
data_I
_chemical_name_common 'image0'
_cell_length_a 13.5054
_cell_length_b 19.815
_cell_length_c 11.6353
_cell_angle_alpha 90
_cell_angle_beta 96.5779
_cell_angle_gamma 90
_space_group_name_H-M_alt 'P 1'
_space_group_name_Hall 'P 1'
loop_
    _symmetry_equiv_pos_as_xyz
    x,y,z
loop_
    _atom_site_label
    _atom_site_type_symbol
    _atom_site_fract_x
    _atom_site_fract_y
    _atom_site_fract_z
    _atom_site_occupancy
    Co1      Co       0.42731    0.21497    0.31493    1.000
    O1       O        0.91760    0.13680    0.33300    1.000
    H1       H        0.88330    0.12560    0.38360    1.000
    O2       O        0.93740    0.20660    0.46820    1.000
    H2       H        0.89570    0.17960    0.48570    1.000
    O3       O        0.92250    0.22910    0.16240    1.000
    H3       H        0.92000    0.26240    0.12050    1.000
    O4       O        0.93070    0.31480    0.30330    1.000
    H4       H        0.96970    0.32810    0.25920    1.000
    O5       O        0.02190    0.00850    0.15380    1.000
    H5       H        0.08290    0.00680    0.15780    1.000
    O6       O        0.01450    0.91910    0.05580    1.000
    H6       H        0.07560    0.91940    0.06150    1.000
    N1       N        0.45955    0.21140    0.49790    1.000
    N2       N        0.42569    0.24501    0.56660    1.000
    N3       N        0.39075    0.27853    0.63400    1.000
    N4       N        0.43682    0.10801    0.30020    1.000
    N5       N        0.47547    0.07325    0.23640    1.000
    N6       N        0.51464    0.03659    0.17710    1.000
    N7       N        0.51624    0.09990    0.94450    1.000
    N8       N        0.46578    0.13732    0.88450    1.000
    N9       N        0.41738    0.17572    0.82670    1.000
    N10      N        0.58410    0.22635    0.29800    1.000
    N11      N        0.27045    0.20847    0.33134    1.000
    N12      N        0.65920    0.98956    0.01950    1.000
    C1       C        0.64450    0.26195    0.37620    1.000
    C2       C        0.62640    0.20013    0.21020    1.000
    C3       C        0.74450    0.27113    0.36880    1.000
    C4       C        0.72600    0.20666    0.19850    1.000
    C5       C        0.78830    0.24190    0.27830    1.000
    C6       C        0.89900    0.24746    0.27200    1.000
    C7       C        0.21390    0.16004    0.28040    1.000
    C8       C        0.22360    0.25229    0.39430    1.000
    C9       C        0.11330    0.15450    0.28550    1.000
    C10      C        0.12350    0.24880    0.40590    1.000
    C11      C        0.06530    0.19969    0.34750    1.000
    C12      C        0.95420    0.19620    0.35560    1.000
    C13      C        0.70740    0.93636    0.98410    1.000
    C14      C        0.71630    0.03956    0.06510    1.000
    C15      C        0.81900    0.03810    0.07920    1.000
    C16      C        0.81000    0.93132    0.99310    1.000
    C17      C        0.86840    0.98363    0.04040    1.000
    C18      C        0.98130    0.98152    0.05070    1.000
    H7       H        0.58080    0.17590    0.15500    1.000
    H8       H        0.78000    0.29430    0.42400    1.000
    H9       H        0.85000    0.88680    0.95700    1.000
    H10      H        0.66900    0.90430    0.95400    1.000
    H11      H        0.75300    0.19100    0.14700    1.000
    H12      H        0.60900    0.28110    0.44700    1.000
    H13      H        0.85700    0.07200    0.11300    1.000
    H14      H        0.24600    0.12540    0.24300    1.000
    H15      H        0.68200    0.07190    0.10100    1.000
    H16      H        0.26500    0.29500    0.42600    1.000
    H17      H        0.08500    0.11700    0.25700    1.000
    H18      H        0.08000    0.28220    0.43900    1.000
    Co2      Co       0.57269    0.71497    0.18507    1.000
    O7       O        0.08240    0.63680    0.16700    1.000
    H19      H        0.11670    0.62560    0.11640    1.000
    O8       O        0.06260    0.70660    0.03180    1.000
    H20      H        0.10430    0.67960    0.01430    1.000
    O9       O        0.07750    0.72910    0.33760    1.000
    H21      H        0.08000    0.76240    0.37950    1.000
    O10      O        0.06930    0.81480    0.19670    1.000
    H22      H        0.03030    0.82810    0.24080    1.000
    O11      O        0.97810    0.50850    0.34620    1.000
    H23      H        0.91710    0.50680    0.34220    1.000
    O12      O        0.98550    0.41910    0.44420    1.000
    H24      H        0.92440    0.41940    0.43850    1.000
    N13      N        0.54045    0.71140    0.00210    1.000
    N14      N        0.57431    0.74501    0.93340    1.000
    N15      N        0.60925    0.77853    0.86600    1.000
    N16      N        0.56318    0.60801    0.19980    1.000
    N17      N        0.52453    0.57325    0.26360    1.000
    N18      N        0.48536    0.53659    0.32290    1.000
    N19      N        0.48376    0.59990    0.55550    1.000
    N20      N        0.53422    0.63732    0.61550    1.000
    N21      N        0.58262    0.67572    0.67330    1.000
    N22      N        0.41590    0.72635    0.20200    1.000
    N23      N        0.72955    0.70847    0.16866    1.000
    N24      N        0.34080    0.48956    0.48050    1.000
    C19      C        0.35550    0.76195    0.12380    1.000
    C20      C        0.37360    0.70013    0.28980    1.000
    C21      C        0.25550    0.77113    0.13120    1.000
    C22      C        0.27400    0.70666    0.30150    1.000
    C23      C        0.21170    0.74190    0.22170    1.000
    C24      C        0.10100    0.74746    0.22800    1.000
    C25      C        0.78610    0.66004    0.21960    1.000
    C26      C        0.77640    0.75229    0.10570    1.000
    C27      C        0.88670    0.65450    0.21450    1.000
    C28      C        0.87650    0.74880    0.09410    1.000
    C29      C        0.93470    0.69969    0.15250    1.000
    C30      C        0.04580    0.69620    0.14440    1.000
    C31      C        0.29260    0.43636    0.51590    1.000
    C32      C        0.28370    0.53956    0.43490    1.000
    C33      C        0.18100    0.53810    0.42080    1.000
    C34      C        0.19000    0.43132    0.50690    1.000
    C35      C        0.13160    0.48363    0.45960    1.000
    C36      C        0.01870    0.48152    0.44930    1.000
    H25      H        0.41920    0.67590    0.34500    1.000
    H26      H        0.22000    0.79430    0.07600    1.000
    H27      H        0.15000    0.38680    0.54300    1.000
    H28      H        0.33100    0.40430    0.54600    1.000
    H29      H        0.24700    0.69100    0.35300    1.000
    H30      H        0.39100    0.78110    0.05300    1.000
    H31      H        0.14300    0.57200    0.38700    1.000
    H32      H        0.75400    0.62540    0.25700    1.000
    H33      H        0.31800    0.57190    0.39900    1.000
    H34      H        0.73500    0.79500    0.07400    1.000
    H35      H        0.91500    0.61700    0.24300    1.000
    H36      H        0.92000    0.78220    0.06100    1.000
    Co3      Co       0.57269    0.78503    0.68507    1.000
    O13      O        0.08240    0.86320    0.66700    1.000
    H37      H        0.11670    0.87440    0.61640    1.000
    O14      O        0.06260    0.79340    0.53180    1.000
    H38      H        0.10430    0.82040    0.51430    1.000
    O15      O        0.07750    0.77090    0.83760    1.000
    H39      H        0.08000    0.73760    0.87950    1.000
    O16      O        0.06930    0.68520    0.69670    1.000
    H40      H        0.03030    0.67190    0.74080    1.000
    O17      O        0.97810    0.99150    0.84620    1.000
    H41      H        0.91710    0.99320    0.84220    1.000
    O18      O        0.98550    0.08090    0.94420    1.000
    H42      H        0.92440    0.08060    0.93850    1.000
    N25      N        0.54045    0.78860    0.50210    1.000
    N26      N        0.57431    0.75499    0.43340    1.000
    N27      N        0.60925    0.72147    0.36600    1.000
    N28      N        0.56318    0.89199    0.69980    1.000
    N29      N        0.52453    0.92675    0.76360    1.000
    N30      N        0.48536    0.96341    0.82290    1.000
    N31      N        0.48376    0.90010    0.05550    1.000
    N32      N        0.53422    0.86268    0.11550    1.000
    N33      N        0.58262    0.82428    0.17330    1.000
    N34      N        0.41590    0.77365    0.70200    1.000
    N35      N        0.72955    0.79153    0.66866    1.000
    N36      N        0.34080    0.01044    0.98050    1.000
    C37      C        0.35550    0.73805    0.62380    1.000
    C38      C        0.37360    0.79987    0.78980    1.000
    C39      C        0.25550    0.72887    0.63120    1.000
    C40      C        0.27400    0.79334    0.80150    1.000
    C41      C        0.21170    0.75810    0.72170    1.000
    C42      C        0.10100    0.75254    0.72800    1.000
    C43      C        0.78610    0.83996    0.71960    1.000
    C44      C        0.77640    0.74771    0.60570    1.000
    C45      C        0.88670    0.84550    0.71450    1.000
    C46      C        0.87650    0.75120    0.59410    1.000
    C47      C        0.93470    0.80031    0.65250    1.000
    C48      C        0.04580    0.80380    0.64440    1.000
    C49      C        0.29260    0.06364    0.01590    1.000
    C50      C        0.28370    0.96044    0.93490    1.000
    C51      C        0.18100    0.96190    0.92080    1.000
    C52      C        0.19000    0.06868    0.00690    1.000
    C53      C        0.13160    0.01637    0.95960    1.000
    C54      C        0.01870    0.01848    0.94930    1.000
    H43      H        0.41920    0.82410    0.84500    1.000
    H44      H        0.22000    0.70570    0.57600    1.000
    H45      H        0.15000    0.11320    0.04300    1.000
    H46      H        0.33100    0.09570    0.04600    1.000
    H47      H        0.24700    0.80900    0.85300    1.000
    H48      H        0.39100    0.71890    0.55300    1.000
    H49      H        0.14300    0.92800    0.88700    1.000
    H50      H        0.75400    0.87460    0.75700    1.000
    H51      H        0.31800    0.92810    0.89900    1.000
    H52      H        0.73500    0.70500    0.57400    1.000
    H53      H        0.91500    0.88300    0.74300    1.000
    H54      H        0.92000    0.71780    0.56100    1.000
    Co4      Co       0.42731    0.28503    0.81493    1.000
    O19      O        0.91760    0.36320    0.83300    1.000
    H55      H        0.88330    0.37440    0.88360    1.000
    O20      O        0.93740    0.29340    0.96820    1.000
    H56      H        0.89570    0.32040    0.98570    1.000
    O21      O        0.92250    0.27090    0.66240    1.000
    H57      H        0.92000    0.23760    0.62050    1.000
    O22      O        0.93070    0.18520    0.80330    1.000
    H58      H        0.96970    0.17190    0.75920    1.000
    O23      O        0.02190    0.49150    0.65380    1.000
    H59      H        0.08290    0.49320    0.65780    1.000
    O24      O        0.01450    0.58090    0.55580    1.000
    H60      H        0.07560    0.58060    0.56150    1.000
    N37      N        0.45955    0.28860    0.99790    1.000
    N38      N        0.42569    0.25499    0.06660    1.000
    N39      N        0.39075    0.22147    0.13400    1.000
    N40      N        0.43682    0.39199    0.80020    1.000
    N41      N        0.47547    0.42675    0.73640    1.000
    N42      N        0.51464    0.46341    0.67710    1.000
    N43      N        0.51624    0.40010    0.44450    1.000
    N44      N        0.46578    0.36268    0.38450    1.000
    N45      N        0.41738    0.32428    0.32670    1.000
    N46      N        0.58410    0.27365    0.79800    1.000
    N47      N        0.27045    0.29153    0.83134    1.000
    N48      N        0.65920    0.51044    0.51950    1.000
    C55      C        0.64450    0.23805    0.87620    1.000
    C56      C        0.62640    0.29987    0.71020    1.000
    C57      C        0.74450    0.22887    0.86880    1.000
    C58      C        0.72600    0.29334    0.69850    1.000
    C59      C        0.78830    0.25810    0.77830    1.000
    C60      C        0.89900    0.25254    0.77200    1.000
    C61      C        0.21390    0.33996    0.78040    1.000
    C62      C        0.22360    0.24771    0.89430    1.000
    C63      C        0.11330    0.34550    0.78550    1.000
    C64      C        0.12350    0.25120    0.90590    1.000
    C65      C        0.06530    0.30031    0.84750    1.000
    C66      C        0.95420    0.30380    0.85560    1.000
    C67      C        0.70740    0.56364    0.48410    1.000
    C68      C        0.71630    0.46044    0.56510    1.000
    C69      C        0.81900    0.46190    0.57920    1.000
    C70      C        0.81000    0.56868    0.49310    1.000
    C71      C        0.86840    0.51637    0.54040    1.000
    C72      C        0.98130    0.51848    0.55070    1.000
    H61      H        0.58080    0.32410    0.65500    1.000
    H62      H        0.78000    0.20570    0.92400    1.000
    H63      H        0.85000    0.61320    0.45700    1.000
    H64      H        0.66900    0.59570    0.45400    1.000
    H65      H        0.75300    0.30900    0.64700    1.000
    H66      H        0.60900    0.21890    0.94700    1.000
    H67      H        0.85700    0.42800    0.61300    1.000
    H68      H        0.24600    0.37460    0.74300    1.000
    H69      H        0.68200    0.42810    0.60100    1.000
    H70      H        0.26500    0.20500    0.92600    1.000
    H71      H        0.08500    0.38300    0.75700    1.000
    H72      H        0.08000    0.21780    0.93900    1.000
    Co5      Co       0.50000    0.00000    0.00000    1.000
    Co6      Co       0.50000    0.50000    0.50000    1.000
