# CIF file generated by openbabel 3.1.0, see https://openbabel.org
data_I
_chemical_name_common 'LIHRIE_clean'
_cell_length_a 6.8119
_cell_length_b 7.3183
_cell_length_c 13.7846
_cell_angle_alpha 90
_cell_angle_beta 90
_cell_angle_gamma 90
_space_group_name_H-M_alt 'P 1'
_space_group_name_Hall 'P 1'
loop_
    _symmetry_equiv_pos_as_xyz
    x,y,z
loop_
    _atom_site_label
    _atom_site_type_symbol
    _atom_site_fract_x
    _atom_site_fract_y
    _atom_site_fract_z
    _atom_site_occupancy
    Zn1      Zn       0.75000    0.18263    0.58624    1.000
    Zn2      Zn       0.25000    0.31737    0.08624    1.000
    Zn3      Zn       0.25000    0.81737    0.41376    1.000
    Zn4      Zn       0.75000    0.68263    0.91376    1.000
    Zn5      Zn       0.00000    0.50000    0.50000    1.000
    Zn6      Zn       0.00000    0.00000    0.00000    1.000
    Zn7      Zn       0.50000    0.50000    0.50000    1.000
    Zn8      Zn       0.50000    0.00000    0.00000    1.000
    H1       H        0.03860    0.13790    0.76680    1.000
    H2       H        0.96140    0.36210    0.26680    1.000
    H3       H        0.53860    0.86210    0.23320    1.000
    H4       H        0.46140    0.63790    0.73320    1.000
    H5       H        0.96140    0.86210    0.23320    1.000
    H6       H        0.03860    0.63790    0.73320    1.000
    H7       H        0.46140    0.13790    0.76680    1.000
    H8       H        0.53860    0.36210    0.26680    1.000
    H9       H        0.75000    0.29100    0.43100    1.000
    H10      H        0.25000    0.20900    0.93100    1.000
    H11      H        0.25000    0.70900    0.56900    1.000
    H12      H        0.75000    0.79100    0.06900    1.000
    C1       C        0.90580    0.12720    0.78702    1.000
    C2       C        0.09420    0.37280    0.28702    1.000
    C3       C        0.40580    0.87280    0.21298    1.000
    C4       C        0.59420    0.62720    0.71298    1.000
    C5       C        0.09420    0.87280    0.21298    1.000
    C6       C        0.90580    0.62720    0.71298    1.000
    C7       C        0.59420    0.12720    0.78702    1.000
    C8       C        0.40580    0.37280    0.28702    1.000
    N1       N        0.85130    0.08050    0.87540    1.000
    N2       N        0.14870    0.41950    0.37540    1.000
    N3       N        0.35130    0.91950    0.12460    1.000
    N4       N        0.64870    0.58050    0.62460    1.000
    N5       N        0.14870    0.91950    0.12460    1.000
    N6       N        0.85130    0.58050    0.62460    1.000
    N7       N        0.64870    0.08050    0.87540    1.000
    N8       N        0.35130    0.41950    0.37540    1.000
    N9       N        0.75000    0.15800    0.72866    1.000
    N10      N        0.25000    0.34200    0.22866    1.000
    N11      N        0.25000    0.84200    0.27134    1.000
    N12      N        0.75000    0.65800    0.77134    1.000
    O1       O        0.75000    0.35110    0.47354    1.000
    O2       O        0.25000    0.14890    0.97354    1.000
    O3       O        0.25000    0.64890    0.52646    1.000
    O4       O        0.75000    0.85110    0.02646    1.000
