# CIF file generated by openbabel 3.1.0, see https://openbabel.org
data_I
_chemical_name_common 'image0'
_cell_length_a 35.047
_cell_length_b 15.0048
_cell_length_c 30.5654
_cell_angle_alpha 90
_cell_angle_beta 101.464
_cell_angle_gamma 90
_space_group_name_H-M_alt 'P 1'
_space_group_name_Hall 'P 1'
loop_
    _symmetry_equiv_pos_as_xyz
    x,y,z
loop_
    _atom_site_label
    _atom_site_type_symbol
    _atom_site_fract_x
    _atom_site_fract_y
    _atom_site_fract_z
    _atom_site_occupancy
    Zn1      Zn       0.66119    0.12555    0.41741    1.000
    I1       I        0.71371    0.09969    0.37181    1.000
    I2       I        0.63042    0.01004    0.46007    1.000
    Zn2      Zn       0.58634    0.86904    0.23223    1.000
    I3       I        0.63238    0.89168    0.30700    1.000
    I4       I        0.52655    0.96784    0.20981    1.000
    Zn3      Zn       0.36901    0.15880    0.06404    1.000
    I5       I        0.35108    0.01677    0.10115    1.000
    Zn4      Zn       0.06400    0.38670    0.23040    1.000
    N1       N        0.52720    0.28540    0.22950    1.000
    N2       N        0.51650    0.42160    0.19100    1.000
    N3       N        0.56500    0.41300    0.25680    1.000
    N4       N        0.61890    0.18870    0.37150    1.000
    N5       N        0.41570    0.21630    0.10600    1.000
    N6       N        0.57090    0.73570    0.22630    1.000
    N7       N        0.73180    0.52450    0.52770    1.000
    N8       N        0.68270    0.48240    0.56700    1.000
    N9       N        0.72060    0.61290    0.58740    1.000
    N10      N        0.83740    0.75960    0.54610    1.000
    N11      N        0.67920    0.23310    0.46040    1.000
    N12      N        0.61900    0.61330    0.68430    1.000
    N13      N        0.17280    0.53600    0.07180    1.000
    N14      N        0.22320    0.48670    0.03640    1.000
    N15      N        0.20670    0.40500    0.09610    1.000
    N16      N        0.10230    0.41010    0.18700    1.000
    N17      N        0.32280    0.24550    0.06380    1.000
    N18      N        0.17670    0.76650    0.95390    1.000
    C1       C        0.55430    0.32870    0.25890    1.000
    C2       C        0.50910    0.33730    0.19630    1.000
    C3       C        0.54460    0.45830    0.22230    1.000
    C4       C        0.57430    0.27650    0.29960    1.000
    C5       C        0.59390    0.32150    0.33440    1.000
    H1       H        0.59270    0.38480    0.33450    1.000
    C6       C        0.61710    0.27570    0.37200    1.000
    H2       H        0.63090    0.30830    0.39680    1.000
    C7       C        0.59690    0.14590    0.33730    1.000
    H3       H        0.59700    0.08260    0.33800    1.000
    C8       C        0.57480    0.18590    0.30190    1.000
    H4       H        0.55960    0.15140    0.27870    1.000
    C9       C        0.47690    0.29440    0.16300    1.000
    C10      C        0.47140    0.20580    0.16560    1.000
    H5       H        0.48880    0.17030    0.18630    1.000
    C11      C        0.43990    0.16800    0.13720    1.000
    H6       H        0.43510    0.10610    0.13970    1.000
    C12      C        0.42160    0.30240    0.10430    1.000
    H7       H        0.40440    0.33750    0.08320    1.000
    C13      C        0.45250    0.34340    0.13250    1.000
    H8       H        0.45640    0.40570    0.13030    1.000
    C14      C        0.55420    0.55670    0.22320    1.000
    C15      C        0.53130    0.61480    0.19420    1.000
    H9       H        0.51000    0.59390    0.17240    1.000
    C16      C        0.54050    0.70390    0.19790    1.000
    H10      H        0.52410    0.74480    0.17920    1.000
    C17      C        0.59300    0.67840    0.25150    1.000
    H11      H        0.61580    0.69950    0.27080    1.000
    C18      C        0.58470    0.58710    0.25150    1.000
    H12      H        0.60080    0.54780    0.27160    1.000
    C19      C        0.73980    0.59430    0.55530    1.000
    C20      C        0.70370    0.46940    0.53590    1.000
    C21      C        0.69180    0.55750    0.59170    1.000
    C22      C        0.77280    0.65320    0.55080    1.000
    C23      C        0.79480    0.69210    0.58980    1.000
    H13      H        0.78880    0.68130    0.61830    1.000
    C24      C        0.82600    0.74760    0.58470    1.000
    H14      H        0.83970    0.77820    0.61030    1.000
    C25      C        0.81690    0.71620    0.51040    1.000
    H15      H        0.82400    0.72450    0.48220    1.000
    C26      C        0.78620    0.66030    0.51280    1.000
    H16      H        0.77440    0.62660    0.48730    1.000
    C27      C        0.69650    0.38570    0.50950    1.000
    C28      C        0.71550    0.36620    0.47740    1.000
    H17      H        0.73460    0.40630    0.47110    1.000
    C29      C        0.70780    0.28610    0.45220    1.000
    H18      H        0.72250    0.27070    0.43030    1.000
    C30      C        0.66190    0.24930    0.49320    1.000
    H19      H        0.64330    0.20770    0.49960    1.000
    C31      C        0.66940    0.32480    0.51890    1.000
    H20      H        0.65620    0.33510    0.54280    1.000
    C32      C        0.66810    0.57520    0.62370    1.000
    C33      C        0.63210    0.53710    0.62100    1.000
    H21      H        0.62310    0.49570    0.59770    1.000
    C34      C        0.60870    0.55660    0.65080    1.000
    H22      H        0.58400    0.52820    0.64730    1.000
    C35      C        0.65460    0.65140    0.68910    1.000
    H23      H        0.66300    0.68920    0.71410    1.000
    C36      C        0.67950    0.63850    0.65960    1.000
    H24      H        0.70340    0.67030    0.66280    1.000
    C37      C        0.17930    0.46630    0.09770    1.000
    C38      C        0.19420    0.54170    0.04310    1.000
    C39      C        0.22830    0.41890    0.06580    1.000
    C40      C        0.15330    0.44620    0.13000    1.000
    C41      C        0.12500    0.50730    0.13610    1.000
    H25      H        0.12250    0.56230    0.12040    1.000
    C42      C        0.10140    0.48800    0.16420    1.000
    H26      H        0.08290    0.53200    0.16850    1.000
    C43      C        0.12880    0.35820    0.17960    1.000
    H27      H        0.13040    0.30300    0.19510    1.000
    C44      C        0.15540    0.36900    0.15280    1.000
    H28      H        0.17430    0.32480    0.15040    1.000
    C45      C        0.26160    0.35730    0.06410    1.000
    C46      C        0.27360    0.30100    0.09960    1.000
    H29      H        0.26100    0.29990    0.12440    1.000
    C47      C        0.30520    0.24550    0.09740    1.000
    H30      H        0.31420    0.20610    0.12160    1.000
    C48      C        0.31030    0.29740    0.02880    1.000
    H31      H        0.32280    0.29570    0.00390    1.000
    C49      C        0.27800    0.35600    0.02850    1.000
    H32      H        0.26850    0.39290    0.00340    1.000
    C50      C        0.18950    0.62300    0.01150    1.000
    C51      C        0.21640    0.64760    0.98870    1.000
    H33      H        0.24070    0.61730    0.99370    1.000
    C52      C        0.20990    0.71540    0.95840    1.000
    H34      H        0.22840    0.72750    0.94030    1.000
    C53      C        0.14930    0.73880    0.97790    1.000
    H35      H        0.12500    0.76910    0.97370    1.000
    C54      C        0.15570    0.67190    0.00640    1.000
    H36      H        0.13670    0.65730    0.02350    1.000
    I6       I        0.38402    0.16251    0.98687    1.000
    N19      N        0.06820    0.92600    0.24580    1.000
    N20      N        0.02080    0.93570    0.18050    1.000
    N21      N        0.03330    0.79750    0.21770    1.000
    N22      N        0.12470    0.70180    0.35990    1.000
    N23      N        0.05670    0.25340    0.21770    1.000
    N24      N        0.92790    0.71890    0.09120    1.000
    C55      C        0.06030    0.84090    0.24720    1.000
    C56      C        0.04540    0.97270    0.21240    1.000
    C57      C        0.01560    0.85120    0.18390    1.000
    C58      C        0.08340    0.79030    0.28480    1.000
    C59      C        0.07790    0.70250    0.29100    1.000
    H37      H        0.06030    0.66960    0.26930    1.000
    C60      C        0.09810    0.65980    0.32960    1.000
    H38      H        0.09270    0.59900    0.33440    1.000
    C61      C        0.12610    0.78930    0.35610    1.000
    H39      H        0.14280    0.82240    0.37860    1.000
    C62      C        0.10490    0.83260    0.32150    1.000
    H40      H        0.10470    0.89580    0.32220    1.000
    C63      C        0.04980    0.06840    0.21270    1.000
    C64      C        0.07640    0.10850    0.24730    1.000
    H41      H        0.09280    0.07390    0.26940    1.000
    C65      C        0.07770    0.20150    0.24810    1.000
    H42      H        0.09480    0.22920    0.27220    1.000
    C66      C        0.03190    0.21800    0.18600    1.000
    H43      H        0.01610    0.25550    0.16470    1.000
    C67      C        0.02760    0.12560    0.18190    1.000
    H44      H        0.00930    0.10150    0.15780    1.000
    C68      C        0.98630    0.80350    0.15100    1.000
    C69      C        0.96720    0.84610    0.11220    1.000
    H45      H        0.97420    0.90500    0.10550    1.000
    C70      C        0.93910    0.80270    0.08450    1.000
    H46      H        0.92610    0.83290    0.05850    1.000
    C71      C        0.94710    0.67290    0.12430    1.000
    H47      H        0.94150    0.61150    0.12750    1.000
    C72      C        0.97690    0.71640    0.15600    1.000
    H48      H        0.99040    0.68380    0.18090    1.000
    Zn5      Zn       0.16388    0.86700    0.90670    1.000
    Zn6      Zn       0.88445    0.83930    0.54356    1.000
    I7       I        0.13197    0.99310    0.94223    1.000
    I8       I        0.09735    0.40660    0.31040    1.000
    I9       I        0.00230    0.46930    0.19360    1.000
    I10      I        0.22209    0.89270    0.87123    1.000
    I11      I        0.89984    0.82910    0.46640    1.000
    I12      I        0.86862    0.98606    0.57936    1.000
    I13      I        0.98149    0.71110    0.45861    1.000
    I14      I        0.04575    0.61648    0.44668    1.000
    Zn7      Zn       0.87670    0.85150    0.55570    1.000
    I15      I        0.90270    0.87310    0.48490    1.000
    Zn8      Zn       0.68070    0.10800    0.40240    1.000
    I16      I        0.72760    0.07800    0.36270    1.000
    I17      I        0.64240    0.98700    0.44460    1.000
    Zn9      Zn       0.15990    0.85410    0.91300    1.000
    I18      I        0.21680    0.90300    0.87930    1.000
    I19      I        0.11740    0.53210    0.44250    1.000
    Zn10     Zn       0.05410    0.39650    0.21210    1.000
    I20      I        0.01030    0.95450    0.33130    1.000
    Zn11     Zn       0.08090    0.38810    0.22930    1.000
    I21      I        0.05970    0.90650    0.41160    1.000
    I22      I        0.99330    0.82140    0.41700    1.000
    I23      I        0.90230    0.68340    0.42770    1.000
    I24      I        0.90070    0.52710    0.38100    1.000
    I25      I        0.03030    0.51370    0.48040    1.000
    I26      I        0.85710    0.98770    0.59810    1.000
    I27      I        0.08360    0.45710    0.28740    1.000
    I28      I        0.12500    0.41120    0.30430    1.000
    I29      I        0.02130    0.48680    0.20870    1.000
    Zn12     Zn       0.33881    0.62555    0.08259    1.000
    I30      I        0.28629    0.59969    0.12819    1.000
    I31      I        0.36958    0.51004    0.03993    1.000
    Zn13     Zn       0.41366    0.36904    0.26777    1.000
    I32      I        0.36762    0.39168    0.19300    1.000
    I33      I        0.47345    0.46784    0.29019    1.000
    Zn14     Zn       0.63099    0.65880    0.43596    1.000
    I34      I        0.64892    0.51677    0.39885    1.000
    Zn15     Zn       0.93600    0.88670    0.26960    1.000
    N25      N        0.47280    0.78540    0.27050    1.000
    N26      N        0.48350    0.92160    0.30900    1.000
    N27      N        0.43500    0.91300    0.24320    1.000
    N28      N        0.38110    0.68870    0.12850    1.000
    N29      N        0.58430    0.71630    0.39400    1.000
    N30      N        0.42910    0.23570    0.27370    1.000
    N31      N        0.26820    0.02450    0.97230    1.000
    N32      N        0.31730    0.98240    0.93300    1.000
    N33      N        0.27940    0.11290    0.91260    1.000
    N34      N        0.16260    0.25960    0.95390    1.000
    N35      N        0.32080    0.73310    0.03960    1.000
    N36      N        0.38100    0.11330    0.81570    1.000
    N37      N        0.82720    0.03600    0.42820    1.000
    N38      N        0.77680    0.98670    0.46360    1.000
    N39      N        0.79330    0.90500    0.40390    1.000
    N40      N        0.89770    0.91010    0.31300    1.000
    N41      N        0.67720    0.74550    0.43620    1.000
    N42      N        0.82330    0.26650    0.54610    1.000
    C73      C        0.44570    0.82870    0.24110    1.000
    C74      C        0.49090    0.83730    0.30370    1.000
    C75      C        0.45540    0.95830    0.27770    1.000
    C76      C        0.42570    0.77650    0.20040    1.000
    C77      C        0.40610    0.82150    0.16560    1.000
    H49      H        0.40730    0.88480    0.16550    1.000
    C78      C        0.38290    0.77570    0.12800    1.000
    H50      H        0.36910    0.80830    0.10320    1.000
    C79      C        0.40310    0.64590    0.16270    1.000
    H51      H        0.40300    0.58260    0.16200    1.000
    C80      C        0.42520    0.68590    0.19810    1.000
    H52      H        0.44040    0.65140    0.22130    1.000
    C81      C        0.52310    0.79440    0.33700    1.000
    C82      C        0.52860    0.70580    0.33440    1.000
    H53      H        0.51120    0.67030    0.31370    1.000
    C83      C        0.56010    0.66800    0.36280    1.000
    H54      H        0.56490    0.60610    0.36030    1.000
    C84      C        0.57840    0.80240    0.39570    1.000
    H55      H        0.59560    0.83750    0.41680    1.000
    C85      C        0.54750    0.84340    0.36750    1.000
    H56      H        0.54360    0.90570    0.36970    1.000
    C86      C        0.44580    0.05670    0.27680    1.000
    C87      C        0.46870    0.11480    0.30580    1.000
    H57      H        0.49000    0.09390    0.32760    1.000
    C88      C        0.45950    0.20390    0.30210    1.000
    H58      H        0.47590    0.24480    0.32080    1.000
    C89      C        0.40700    0.17840    0.24850    1.000
    H59      H        0.38420    0.19950    0.22920    1.000
    C90      C        0.41530    0.08710    0.24850    1.000
    H60      H        0.39920    0.04780    0.22840    1.000
    C91      C        0.26020    0.09430    0.94470    1.000
    C92      C        0.29630    0.96940    0.96410    1.000
    C93      C        0.30820    0.05750    0.90830    1.000
    C94      C        0.22720    0.15320    0.94920    1.000
    C95      C        0.20520    0.19210    0.91020    1.000
    H61      H        0.21120    0.18130    0.88170    1.000
    C96      C        0.17400    0.24760    0.91530    1.000
    H62      H        0.16030    0.27820    0.88970    1.000
    C97      C        0.18310    0.21620    0.98960    1.000
    H63      H        0.17600    0.22450    0.01780    1.000
    C98      C        0.21380    0.16030    0.98720    1.000
    H64      H        0.22560    0.12660    0.01270    1.000
    C99      C        0.30350    0.88570    0.99050    1.000
    C100     C        0.28450    0.86620    0.02260    1.000
    H65      H        0.26540    0.90630    0.02890    1.000
    C101     C        0.29220    0.78610    0.04780    1.000
    H66      H        0.27750    0.77070    0.06970    1.000
    C102     C        0.33810    0.74930    0.00680    1.000
    H67      H        0.35670    0.70770    0.00040    1.000
    C103     C        0.33060    0.82480    0.98110    1.000
    H68      H        0.34380    0.83510    0.95720    1.000
    C104     C        0.33190    0.07520    0.87630    1.000
    C105     C        0.36790    0.03710    0.87900    1.000
    H69      H        0.37690    0.99570    0.90230    1.000
    C106     C        0.39130    0.05660    0.84920    1.000
    H70      H        0.41600    0.02820    0.85270    1.000
    C107     C        0.34540    0.15140    0.81090    1.000
    H71      H        0.33700    0.18920    0.78590    1.000
    C108     C        0.32050    0.13850    0.84040    1.000
    H72      H        0.29660    0.17030    0.83720    1.000
    C109     C        0.82070    0.96630    0.40230    1.000
    C110     C        0.80580    0.04170    0.45690    1.000
    C111     C        0.77170    0.91890    0.43420    1.000
    C112     C        0.84670    0.94620    0.37000    1.000
    C113     C        0.87500    0.00730    0.36390    1.000
    H73      H        0.87750    0.06230    0.37960    1.000
    C114     C        0.89860    0.98800    0.33580    1.000
    H74      H        0.91710    0.03200    0.33150    1.000
    C115     C        0.87120    0.85820    0.32040    1.000
    H75      H        0.86960    0.80300    0.30490    1.000
    C116     C        0.84460    0.86900    0.34720    1.000
    H76      H        0.82570    0.82480    0.34960    1.000
    C117     C        0.73840    0.85730    0.43590    1.000
    C118     C        0.72640    0.80100    0.40040    1.000
    H77      H        0.73900    0.79990    0.37560    1.000
    C119     C        0.69480    0.74550    0.40260    1.000
    H78      H        0.68580    0.70610    0.37840    1.000
    C120     C        0.68970    0.79740    0.47120    1.000
    H79      H        0.67720    0.79570    0.49610    1.000
    C121     C        0.72200    0.85600    0.47150    1.000
    H80      H        0.73150    0.89290    0.49660    1.000
    C122     C        0.81050    0.12300    0.48850    1.000
    C123     C        0.78360    0.14760    0.51130    1.000
    H81      H        0.75930    0.11730    0.50630    1.000
    C124     C        0.79010    0.21540    0.54160    1.000
    H82      H        0.77160    0.22750    0.55970    1.000
    C125     C        0.85070    0.23880    0.52210    1.000
    H83      H        0.87500    0.26910    0.52630    1.000
    C126     C        0.84430    0.17190    0.49360    1.000
    H84      H        0.86330    0.15730    0.47650    1.000
    I35      I        0.61598    0.66251    0.51313    1.000
    N43      N        0.93180    0.42600    0.25420    1.000
    N44      N        0.97920    0.43570    0.31950    1.000
    N45      N        0.96670    0.29750    0.28230    1.000
    N46      N        0.87530    0.20180    0.14010    1.000
    N47      N        0.94330    0.75340    0.28230    1.000
    N48      N        0.07210    0.21890    0.40880    1.000
    C127     C        0.93970    0.34090    0.25280    1.000
    C128     C        0.95460    0.47270    0.28760    1.000
    C129     C        0.98440    0.35120    0.31610    1.000
    C130     C        0.91660    0.29030    0.21520    1.000
    C131     C        0.92210    0.20250    0.20900    1.000
    H85      H        0.93970    0.16960    0.23070    1.000
    C132     C        0.90190    0.15980    0.17040    1.000
    H86      H        0.90730    0.09900    0.16560    1.000
    C133     C        0.87390    0.28930    0.14390    1.000
    H87      H        0.85720    0.32240    0.12140    1.000
    C134     C        0.89510    0.33260    0.17850    1.000
    H88      H        0.89530    0.39580    0.17780    1.000
    C135     C        0.95020    0.56840    0.28730    1.000
    C136     C        0.92360    0.60850    0.25270    1.000
    H89      H        0.90720    0.57390    0.23060    1.000
    C137     C        0.92230    0.70150    0.25190    1.000
    H90      H        0.90520    0.72920    0.22780    1.000
    C138     C        0.96810    0.71800    0.31400    1.000
    H91      H        0.98390    0.75550    0.33530    1.000
    C139     C        0.97240    0.62560    0.31810    1.000
    H92      H        0.99070    0.60150    0.34220    1.000
    C140     C        0.01370    0.30350    0.34900    1.000
    C141     C        0.03280    0.34610    0.38780    1.000
    H93      H        0.02580    0.40500    0.39450    1.000
    C142     C        0.06090    0.30270    0.41550    1.000
    H94      H        0.07390    0.33290    0.44150    1.000
    C143     C        0.05290    0.17290    0.37570    1.000
    H95      H        0.05850    0.11150    0.37250    1.000
    C144     C        0.02310    0.21640    0.34400    1.000
    H96      H        0.00960    0.18380    0.31910    1.000
    Zn16     Zn       0.83612    0.36700    0.59330    1.000
    Zn17     Zn       0.11555    0.33930    0.95644    1.000
    I36      I        0.86803    0.49310    0.55777    1.000
    I37      I        0.90265    0.90660    0.18960    1.000
    I38      I        0.99770    0.96930    0.30640    1.000
    I39      I        0.77791    0.39270    0.62877    1.000
    I40      I        0.10016    0.32910    0.03360    1.000
    I41      I        0.13138    0.48606    0.92064    1.000
    I42      I        0.01851    0.21110    0.04139    1.000
    I43      I        0.95425    0.11648    0.05332    1.000
    Zn18     Zn       0.12330    0.35150    0.94430    1.000
    I44      I        0.09730    0.37310    0.01510    1.000
    Zn19     Zn       0.31930    0.60800    0.09760    1.000
    I45      I        0.27240    0.57800    0.13730    1.000
    I46      I        0.35760    0.48700    0.05540    1.000
    Zn20     Zn       0.84010    0.35410    0.58700    1.000
    I47      I        0.78320    0.40300    0.62070    1.000
    I48      I        0.88260    0.03210    0.05750    1.000
    Zn21     Zn       0.94590    0.89650    0.28790    1.000
    I49      I        0.98970    0.45450    0.16870    1.000
    Zn22     Zn       0.91910    0.88810    0.27070    1.000
    I50      I        0.94030    0.40650    0.08840    1.000
    I51      I        0.00670    0.32140    0.08300    1.000
    I52      I        0.09770    0.18340    0.07230    1.000
    I53      I        0.09930    0.02710    0.11900    1.000
    I54      I        0.96970    0.01370    0.01960    1.000
    I55      I        0.14290    0.48770    0.90190    1.000
    I56      I        0.91640    0.95710    0.21260    1.000
    I57      I        0.87500    0.91120    0.19570    1.000
    I58      I        0.97870    0.98680    0.29130    1.000
    Zn23     Zn       0.33881    0.87445    0.58259    1.000
    I59      I        0.28629    0.90031    0.62819    1.000
    I60      I        0.36958    0.98996    0.53993    1.000
    Zn24     Zn       0.41366    0.13096    0.76777    1.000
    I61      I        0.36762    0.10832    0.69300    1.000
    I62      I        0.47345    0.03216    0.79019    1.000
    Zn25     Zn       0.63099    0.84120    0.93596    1.000
    I63      I        0.64892    0.98323    0.89885    1.000
    Zn26     Zn       0.93600    0.61330    0.76960    1.000
    N49      N        0.47280    0.71460    0.77050    1.000
    N50      N        0.48350    0.57840    0.80900    1.000
    N51      N        0.43500    0.58700    0.74320    1.000
    N52      N        0.38110    0.81130    0.62850    1.000
    N53      N        0.58430    0.78370    0.89400    1.000
    N54      N        0.42910    0.26430    0.77370    1.000
    N55      N        0.26820    0.47550    0.47230    1.000
    N56      N        0.31730    0.51760    0.43300    1.000
    N57      N        0.27940    0.38710    0.41260    1.000
    N58      N        0.16260    0.24040    0.45390    1.000
    N59      N        0.32080    0.76690    0.53960    1.000
    N60      N        0.38100    0.38670    0.31570    1.000
    N61      N        0.82720    0.46400    0.92820    1.000
    N62      N        0.77680    0.51330    0.96360    1.000
    N63      N        0.79330    0.59500    0.90390    1.000
    N64      N        0.89770    0.58990    0.81300    1.000
    N65      N        0.67720    0.75450    0.93620    1.000
    N66      N        0.82330    0.23350    0.04610    1.000
    C145     C        0.44570    0.67130    0.74110    1.000
    C146     C        0.49090    0.66270    0.80370    1.000
    C147     C        0.45540    0.54170    0.77770    1.000
    C148     C        0.42570    0.72350    0.70040    1.000
    C149     C        0.40610    0.67850    0.66560    1.000
    H97      H        0.40730    0.61520    0.66550    1.000
    C150     C        0.38290    0.72430    0.62800    1.000
    H98      H        0.36910    0.69170    0.60320    1.000
    C151     C        0.40310    0.85410    0.66270    1.000
    H99      H        0.40300    0.91740    0.66200    1.000
    C152     C        0.42520    0.81410    0.69810    1.000
    H100     H        0.44040    0.84860    0.72130    1.000
    C153     C        0.52310    0.70560    0.83700    1.000
    C154     C        0.52860    0.79420    0.83440    1.000
    H101     H        0.51120    0.82970    0.81370    1.000
    C155     C        0.56010    0.83200    0.86280    1.000
    H102     H        0.56490    0.89390    0.86030    1.000
    C156     C        0.57840    0.69760    0.89570    1.000
    H103     H        0.59560    0.66250    0.91680    1.000
    C157     C        0.54750    0.65660    0.86750    1.000
    H104     H        0.54360    0.59430    0.86970    1.000
    C158     C        0.44580    0.44330    0.77680    1.000
    C159     C        0.46870    0.38520    0.80580    1.000
    H105     H        0.49000    0.40610    0.82760    1.000
    C160     C        0.45950    0.29610    0.80210    1.000
    H106     H        0.47590    0.25520    0.82080    1.000
    C161     C        0.40700    0.32160    0.74850    1.000
    H107     H        0.38420    0.30050    0.72920    1.000
    C162     C        0.41530    0.41290    0.74850    1.000
    H108     H        0.39920    0.45220    0.72840    1.000
    C163     C        0.26020    0.40570    0.44470    1.000
    C164     C        0.29630    0.53060    0.46410    1.000
    C165     C        0.30820    0.44250    0.40830    1.000
    C166     C        0.22720    0.34680    0.44920    1.000
    C167     C        0.20520    0.30790    0.41020    1.000
    H109     H        0.21120    0.31870    0.38170    1.000
    C168     C        0.17400    0.25240    0.41530    1.000
    H110     H        0.16030    0.22180    0.38970    1.000
    C169     C        0.18310    0.28380    0.48960    1.000
    H111     H        0.17600    0.27550    0.51780    1.000
    C170     C        0.21380    0.33970    0.48720    1.000
    H112     H        0.22560    0.37340    0.51270    1.000
    C171     C        0.30350    0.61430    0.49050    1.000
    C172     C        0.28450    0.63380    0.52260    1.000
    H113     H        0.26540    0.59370    0.52890    1.000
    C173     C        0.29220    0.71390    0.54780    1.000
    H114     H        0.27750    0.72930    0.56970    1.000
    C174     C        0.33810    0.75070    0.50680    1.000
    H115     H        0.35670    0.79230    0.50040    1.000
    C175     C        0.33060    0.67520    0.48110    1.000
    H116     H        0.34380    0.66490    0.45720    1.000
    C176     C        0.33190    0.42480    0.37630    1.000
    C177     C        0.36790    0.46290    0.37900    1.000
    H117     H        0.37690    0.50430    0.40230    1.000
    C178     C        0.39130    0.44340    0.34920    1.000
    H118     H        0.41600    0.47180    0.35270    1.000
    C179     C        0.34540    0.34860    0.31090    1.000
    H119     H        0.33700    0.31080    0.28590    1.000
    C180     C        0.32050    0.36150    0.34040    1.000
    H120     H        0.29660    0.32970    0.33720    1.000
    C181     C        0.82070    0.53370    0.90230    1.000
    C182     C        0.80580    0.45830    0.95690    1.000
    C183     C        0.77170    0.58110    0.93420    1.000
    C184     C        0.84670    0.55380    0.87000    1.000
    C185     C        0.87500    0.49270    0.86390    1.000
    H121     H        0.87750    0.43770    0.87960    1.000
    C186     C        0.89860    0.51200    0.83580    1.000
    H122     H        0.91710    0.46800    0.83150    1.000
    C187     C        0.87120    0.64180    0.82040    1.000
    H123     H        0.86960    0.69700    0.80490    1.000
    C188     C        0.84460    0.63100    0.84720    1.000
    H124     H        0.82570    0.67520    0.84960    1.000
    C189     C        0.73840    0.64270    0.93590    1.000
    C190     C        0.72640    0.69900    0.90040    1.000
    H125     H        0.73900    0.70010    0.87560    1.000
    C191     C        0.69480    0.75450    0.90260    1.000
    H126     H        0.68580    0.79390    0.87840    1.000
    C192     C        0.68970    0.70260    0.97120    1.000
    H127     H        0.67720    0.70430    0.99610    1.000
    C193     C        0.72200    0.64400    0.97150    1.000
    H128     H        0.73150    0.60710    0.99660    1.000
    C194     C        0.81050    0.37700    0.98850    1.000
    C195     C        0.78360    0.35240    0.01130    1.000
    H129     H        0.75930    0.38270    0.00630    1.000
    C196     C        0.79010    0.28460    0.04160    1.000
    H130     H        0.77160    0.27250    0.05970    1.000
    C197     C        0.85070    0.26120    0.02210    1.000
    H131     H        0.87500    0.23090    0.02630    1.000
    C198     C        0.84430    0.32810    0.99360    1.000
    H132     H        0.86330    0.34270    0.97650    1.000
    I64      I        0.61598    0.83749    0.01313    1.000
    N67      N        0.93180    0.07400    0.75420    1.000
    N68      N        0.97920    0.06430    0.81950    1.000
    N69      N        0.96670    0.20250    0.78230    1.000
    N70      N        0.87530    0.29820    0.64010    1.000
    N71      N        0.94330    0.74660    0.78230    1.000
    N72      N        0.07210    0.28110    0.90880    1.000
    C199     C        0.93970    0.15910    0.75280    1.000
    C200     C        0.95460    0.02730    0.78760    1.000
    C201     C        0.98440    0.14880    0.81610    1.000
    C202     C        0.91660    0.20970    0.71520    1.000
    C203     C        0.92210    0.29750    0.70900    1.000
    H133     H        0.93970    0.33040    0.73070    1.000
    C204     C        0.90190    0.34020    0.67040    1.000
    H134     H        0.90730    0.40100    0.66560    1.000
    C205     C        0.87390    0.21070    0.64390    1.000
    H135     H        0.85720    0.17760    0.62140    1.000
    C206     C        0.89510    0.16740    0.67850    1.000
    H136     H        0.89530    0.10420    0.67780    1.000
    C207     C        0.95020    0.93160    0.78730    1.000
    C208     C        0.92360    0.89150    0.75270    1.000
    H137     H        0.90720    0.92610    0.73060    1.000
    C209     C        0.92230    0.79850    0.75190    1.000
    H138     H        0.90520    0.77080    0.72780    1.000
    C210     C        0.96810    0.78200    0.81400    1.000
    H139     H        0.98390    0.74450    0.83530    1.000
    C211     C        0.97240    0.87440    0.81810    1.000
    H140     H        0.99070    0.89850    0.84220    1.000
    C212     C        0.01370    0.19650    0.84900    1.000
    C213     C        0.03280    0.15390    0.88780    1.000
    H141     H        0.02580    0.09500    0.89450    1.000
    C214     C        0.06090    0.19730    0.91550    1.000
    H142     H        0.07390    0.16710    0.94150    1.000
    C215     C        0.05290    0.32710    0.87570    1.000
    H143     H        0.05850    0.38850    0.87250    1.000
    C216     C        0.02310    0.28360    0.84400    1.000
    H144     H        0.00960    0.31620    0.81910    1.000
    Zn27     Zn       0.83612    0.13300    0.09330    1.000
    Zn28     Zn       0.11555    0.16070    0.45644    1.000
    I65      I        0.86803    0.00690    0.05777    1.000
    I66      I        0.90265    0.59340    0.68960    1.000
    I67      I        0.99770    0.53070    0.80640    1.000
    I68      I        0.77791    0.10730    0.12877    1.000
    I69      I        0.10016    0.17090    0.53360    1.000
    I70      I        0.13138    0.01394    0.42064    1.000
    I71      I        0.01851    0.28890    0.54139    1.000
    I72      I        0.95425    0.38352    0.55332    1.000
    Zn29     Zn       0.12330    0.14850    0.44430    1.000
    I73      I        0.09730    0.12690    0.51510    1.000
    Zn30     Zn       0.31930    0.89200    0.59760    1.000
    I74      I        0.27240    0.92200    0.63730    1.000
    I75      I        0.35760    0.01300    0.55540    1.000
    Zn31     Zn       0.84010    0.14590    0.08700    1.000
    I76      I        0.78320    0.09700    0.12070    1.000
    I77      I        0.88260    0.46790    0.55750    1.000
    Zn32     Zn       0.94590    0.60350    0.78790    1.000
    I78      I        0.98970    0.04550    0.66870    1.000
    Zn33     Zn       0.91910    0.61190    0.77070    1.000
    I79      I        0.94030    0.09350    0.58840    1.000
    I80      I        0.00670    0.17860    0.58300    1.000
    I81      I        0.09770    0.31660    0.57230    1.000
    I82      I        0.09930    0.47290    0.61900    1.000
    I83      I        0.96970    0.48630    0.51960    1.000
    I84      I        0.14290    0.01230    0.40190    1.000
    I85      I        0.91640    0.54290    0.71260    1.000
    I86      I        0.87500    0.58880    0.69570    1.000
    I87      I        0.97870    0.51320    0.79130    1.000
    Zn34     Zn       0.66119    0.37445    0.91741    1.000
    I88      I        0.71371    0.40031    0.87181    1.000
    I89      I        0.63042    0.48996    0.96007    1.000
    Zn35     Zn       0.58634    0.63096    0.73223    1.000
    I90      I        0.63238    0.60832    0.80700    1.000
    I91      I        0.52655    0.53216    0.70981    1.000
    Zn36     Zn       0.36901    0.34120    0.56404    1.000
    I92      I        0.35108    0.48323    0.60115    1.000
    Zn37     Zn       0.06400    0.11330    0.73040    1.000
    N73      N        0.52720    0.21460    0.72950    1.000
    N74      N        0.51650    0.07840    0.69100    1.000
    N75      N        0.56500    0.08700    0.75680    1.000
    N76      N        0.61890    0.31130    0.87150    1.000
    N77      N        0.41570    0.28370    0.60600    1.000
    N78      N        0.57090    0.76430    0.72630    1.000
    N79      N        0.73180    0.97550    0.02770    1.000
    N80      N        0.68270    0.01760    0.06700    1.000
    N81      N        0.72060    0.88710    0.08740    1.000
    N82      N        0.83740    0.74040    0.04610    1.000
    N83      N        0.67920    0.26690    0.96040    1.000
    N84      N        0.61900    0.88670    0.18430    1.000
    N85      N        0.17280    0.96400    0.57180    1.000
    N86      N        0.22320    0.01330    0.53640    1.000
    N87      N        0.20670    0.09500    0.59610    1.000
    N88      N        0.10230    0.08990    0.68700    1.000
    N89      N        0.32280    0.25450    0.56380    1.000
    N90      N        0.17670    0.73350    0.45390    1.000
    C217     C        0.55430    0.17130    0.75890    1.000
    C218     C        0.50910    0.16270    0.69630    1.000
    C219     C        0.54460    0.04170    0.72230    1.000
    C220     C        0.57430    0.22350    0.79960    1.000
    C221     C        0.59390    0.17850    0.83440    1.000
    H145     H        0.59270    0.11520    0.83450    1.000
    C222     C        0.61710    0.22430    0.87200    1.000
    H146     H        0.63090    0.19170    0.89680    1.000
    C223     C        0.59690    0.35410    0.83730    1.000
    H147     H        0.59700    0.41740    0.83800    1.000
    C224     C        0.57480    0.31410    0.80190    1.000
    H148     H        0.55960    0.34860    0.77870    1.000
    C225     C        0.47690    0.20560    0.66300    1.000
    C226     C        0.47140    0.29420    0.66560    1.000
    H149     H        0.48880    0.32970    0.68630    1.000
    C227     C        0.43990    0.33200    0.63720    1.000
    H150     H        0.43510    0.39390    0.63970    1.000
    C228     C        0.42160    0.19760    0.60430    1.000
    H151     H        0.40440    0.16250    0.58320    1.000
    C229     C        0.45250    0.15660    0.63250    1.000
    H152     H        0.45640    0.09430    0.63030    1.000
    C230     C        0.55420    0.94330    0.72320    1.000
    C231     C        0.53130    0.88520    0.69420    1.000
    H153     H        0.51000    0.90610    0.67240    1.000
    C232     C        0.54050    0.79610    0.69790    1.000
    H154     H        0.52410    0.75520    0.67920    1.000
    C233     C        0.59300    0.82160    0.75150    1.000
    H155     H        0.61580    0.80050    0.77080    1.000
    C234     C        0.58470    0.91290    0.75150    1.000
    H156     H        0.60080    0.95220    0.77160    1.000
    C235     C        0.73980    0.90570    0.05530    1.000
    C236     C        0.70370    0.03060    0.03590    1.000
    C237     C        0.69180    0.94250    0.09170    1.000
    C238     C        0.77280    0.84680    0.05080    1.000
    C239     C        0.79480    0.80790    0.08980    1.000
    H157     H        0.78880    0.81870    0.11830    1.000
    C240     C        0.82600    0.75240    0.08470    1.000
    H158     H        0.83970    0.72180    0.11030    1.000
    C241     C        0.81690    0.78380    0.01040    1.000
    H159     H        0.82400    0.77550    0.98220    1.000
    C242     C        0.78620    0.83970    0.01280    1.000
    H160     H        0.77440    0.87340    0.98730    1.000
    C243     C        0.69650    0.11430    0.00950    1.000
    C244     C        0.71550    0.13380    0.97740    1.000
    H161     H        0.73460    0.09370    0.97110    1.000
    C245     C        0.70780    0.21390    0.95220    1.000
    H162     H        0.72250    0.22930    0.93030    1.000
    C246     C        0.66190    0.25070    0.99320    1.000
    H163     H        0.64330    0.29230    0.99960    1.000
    C247     C        0.66940    0.17520    0.01890    1.000
    H164     H        0.65620    0.16490    0.04280    1.000
    C248     C        0.66810    0.92480    0.12370    1.000
    C249     C        0.63210    0.96290    0.12100    1.000
    H165     H        0.62310    0.00430    0.09770    1.000
    C250     C        0.60870    0.94340    0.15080    1.000
    H166     H        0.58400    0.97180    0.14730    1.000
    C251     C        0.65460    0.84860    0.18910    1.000
    H167     H        0.66300    0.81080    0.21410    1.000
    C252     C        0.67950    0.86150    0.15960    1.000
    H168     H        0.70340    0.82970    0.16280    1.000
    C253     C        0.17930    0.03370    0.59770    1.000
    C254     C        0.19420    0.95830    0.54310    1.000
    C255     C        0.22830    0.08110    0.56580    1.000
    C256     C        0.15330    0.05380    0.63000    1.000
    C257     C        0.12500    0.99270    0.63610    1.000
    H169     H        0.12250    0.93770    0.62040    1.000
    C258     C        0.10140    0.01200    0.66420    1.000
    H170     H        0.08290    0.96800    0.66850    1.000
    C259     C        0.12880    0.14180    0.67960    1.000
    H171     H        0.13040    0.19700    0.69510    1.000
    C260     C        0.15540    0.13100    0.65280    1.000
    H172     H        0.17430    0.17520    0.65040    1.000
    C261     C        0.26160    0.14270    0.56410    1.000
    C262     C        0.27360    0.19900    0.59960    1.000
    H173     H        0.26100    0.20010    0.62440    1.000
    C263     C        0.30520    0.25450    0.59740    1.000
    H174     H        0.31420    0.29390    0.62160    1.000
    C264     C        0.31030    0.20260    0.52880    1.000
    H175     H        0.32280    0.20430    0.50390    1.000
    C265     C        0.27800    0.14400    0.52850    1.000
    H176     H        0.26850    0.10710    0.50340    1.000
    C266     C        0.18950    0.87700    0.51150    1.000
    C267     C        0.21640    0.85240    0.48870    1.000
    H177     H        0.24070    0.88270    0.49370    1.000
    C268     C        0.20990    0.78460    0.45840    1.000
    H178     H        0.22840    0.77250    0.44030    1.000
    C269     C        0.14930    0.76120    0.47790    1.000
    H179     H        0.12500    0.73090    0.47370    1.000
    C270     C        0.15570    0.82810    0.50640    1.000
    H180     H        0.13670    0.84270    0.52350    1.000
    I93      I        0.38402    0.33749    0.48687    1.000
    N91      N        0.06820    0.57400    0.74580    1.000
    N92      N        0.02080    0.56430    0.68050    1.000
    N93      N        0.03330    0.70250    0.71770    1.000
    N94      N        0.12470    0.79820    0.85990    1.000
    N95      N        0.05670    0.24660    0.71770    1.000
    N96      N        0.92790    0.78110    0.59120    1.000
    C271     C        0.06030    0.65910    0.74720    1.000
    C272     C        0.04540    0.52730    0.71240    1.000
    C273     C        0.01560    0.64880    0.68390    1.000
    C274     C        0.08340    0.70970    0.78480    1.000
    C275     C        0.07790    0.79750    0.79100    1.000
    H181     H        0.06030    0.83040    0.76930    1.000
    C276     C        0.09810    0.84020    0.82960    1.000
    H182     H        0.09270    0.90100    0.83440    1.000
    C277     C        0.12610    0.71070    0.85610    1.000
    H183     H        0.14280    0.67760    0.87860    1.000
    C278     C        0.10490    0.66740    0.82150    1.000
    H184     H        0.10470    0.60420    0.82220    1.000
    C279     C        0.04980    0.43160    0.71270    1.000
    C280     C        0.07640    0.39150    0.74730    1.000
    H185     H        0.09280    0.42610    0.76940    1.000
    C281     C        0.07770    0.29850    0.74810    1.000
    H186     H        0.09480    0.27080    0.77220    1.000
    C282     C        0.03190    0.28200    0.68600    1.000
    H187     H        0.01610    0.24450    0.66470    1.000
    C283     C        0.02760    0.37440    0.68190    1.000
    H188     H        0.00930    0.39850    0.65780    1.000
    C284     C        0.98630    0.69650    0.65100    1.000
    C285     C        0.96720    0.65390    0.61220    1.000
    H189     H        0.97420    0.59500    0.60550    1.000
    C286     C        0.93910    0.69730    0.58450    1.000
    H190     H        0.92610    0.66710    0.55850    1.000
    C287     C        0.94710    0.82710    0.62430    1.000
    H191     H        0.94150    0.88850    0.62750    1.000
    C288     C        0.97690    0.78360    0.65600    1.000
    H192     H        0.99040    0.81620    0.68090    1.000
    Zn38     Zn       0.16388    0.63300    0.40670    1.000
    Zn39     Zn       0.88445    0.66070    0.04356    1.000
    I94      I        0.13197    0.50690    0.44223    1.000
    I95      I        0.09735    0.09340    0.81040    1.000
    I96      I        0.00230    0.03070    0.69360    1.000
    I97      I        0.22209    0.60730    0.37123    1.000
    I98      I        0.89984    0.67090    0.96640    1.000
    I99      I        0.86862    0.51394    0.07936    1.000
    I100     I        0.98149    0.78890    0.95861    1.000
    I101     I        0.04575    0.88352    0.94668    1.000
    Zn40     Zn       0.87670    0.64850    0.05570    1.000
    I102     I        0.90270    0.62690    0.98490    1.000
    Zn41     Zn       0.68070    0.39200    0.90240    1.000
    I103     I        0.72760    0.42200    0.86270    1.000
    I104     I        0.64240    0.51300    0.94460    1.000
    Zn42     Zn       0.15990    0.64590    0.41300    1.000
    I105     I        0.21680    0.59700    0.37930    1.000
    I106     I        0.11740    0.96790    0.94250    1.000
    Zn43     Zn       0.05410    0.10350    0.71210    1.000
    I107     I        0.01030    0.54550    0.83130    1.000
    Zn44     Zn       0.08090    0.11190    0.72930    1.000
    I108     I        0.05970    0.59350    0.91160    1.000
    I109     I        0.99330    0.67860    0.91700    1.000
    I110     I        0.90230    0.81660    0.92770    1.000
    I111     I        0.90070    0.97290    0.88100    1.000
    I112     I        0.03030    0.98630    0.98040    1.000
    I113     I        0.85710    0.51230    0.09810    1.000
    I114     I        0.08360    0.04290    0.78740    1.000
    I115     I        0.12500    0.08880    0.80430    1.000
    I116     I        0.02130    0.01320    0.70870    1.000
