# CIF file generated by openbabel 3.1.0, see https://openbabel.org
data_I
_chemical_name_common 'image0'
_cell_length_a 12.726
_cell_length_b 8.057
_cell_length_c 13.505
_cell_angle_alpha 89.958
_cell_angle_beta 90.123
_cell_angle_gamma 89.928
_space_group_name_H-M_alt 'P 1'
_space_group_name_Hall 'P 1'
loop_
    _symmetry_equiv_pos_as_xyz
    x,y,z
loop_
    _atom_site_label
    _atom_site_type_symbol
    _atom_site_fract_x
    _atom_site_fract_y
    _atom_site_fract_z
    _atom_site_occupancy
    Cu1      Cu       0.75001    0.25119    0.25004    1.000
    C1       C        0.84900    0.65970    0.07710    1.000
    H1       H        0.81230    0.74130    0.04260    1.000
    C2       C        0.95420    0.67060    0.08660    1.000
    C3       C        0.94620    0.41610    0.17650    1.000
    H2       H        0.98160    0.33000    0.20820    1.000
    C4       C        0.00390    0.54210    0.13830    1.000
    H3       H        0.07640    0.54310    0.14650    1.000
    C5       C        0.79520    0.52750    0.11850    1.000
    H4       H        0.72290    0.52100    0.10930    1.000
    C6       C        0.58580    0.83050    0.05150    1.000
    C7       C        0.63880    0.95940    0.00750    1.000
    H5       H        0.64880    0.96140    0.93930    1.000
    C8       C        0.67730    0.08620    0.06640    1.000
    H6       H        0.71400    0.17170    0.03580    1.000
    C9       C        0.57210    0.83760    0.15220    1.000
    H7       H        0.53690    0.75280    0.18500    1.000
    C10      C        0.61080    0.97060    0.20430    1.000
    H8       H        0.59850    0.97520    0.27210    1.000
    N1       N        0.84330    0.40860    0.17140    1.000
    N2       N        0.66510    0.09300    0.16280    1.000
    C11      C        0.54490    0.66870    0.41270    1.000
    C12      C        0.65100    0.65920    0.42300    1.000
    H9       H        0.68720    0.74120    0.45760    1.000
    C13      C        0.49660    0.54310    0.36240    1.000
    H10      H        0.42390    0.54410    0.35480    1.000
    C14      C        0.55370    0.41670    0.32350    1.000
    H11      H        0.51820    0.33200    0.29080    1.000
    C15      C        0.70480    0.52800    0.38220    1.000
    H12      H        0.77710    0.52180    0.39120    1.000
    N3       N        0.65640    0.40810    0.32980    1.000
    N4       N        0.83460    0.09240    0.33710    1.000
    C16      C        0.91390    0.83060    0.44850    1.000
    C17      C        0.86170    0.95790    0.49220    1.000
    H13      H        0.85200    0.95870    0.56050    1.000
    C18      C        0.82280    0.08750    0.43430    1.000
    H14      H        0.78710    0.17380    0.46520    1.000
    C19      C        0.92820    0.83910    0.34720    1.000
    H15      H        0.96410    0.75520    0.31420    1.000
    C20      C        0.88920    0.97150    0.29620    1.000
    H16      H        0.90170    0.97680    0.22850    1.000
    C21      C        0.94960    0.69020    0.50850    1.000
    H17      H        0.94730    0.69560    0.57730    1.000
    C22      C        0.01280    0.81200    0.04680    1.000
    H18      H        0.08560    0.80630    0.04210    1.000
    C23      C        0.48720    0.81190    0.45220    1.000
    H19      H        0.41430    0.80810    0.45490    1.000
    N5       N        0.53420    0.93980    0.48240    1.000
    N6       N        0.96540    0.94120    0.01880    1.000
    C24      C        0.54930    0.69220    0.99210    1.000
    H20      H        0.54940    0.70000    0.92340    1.000
    N7       N        0.51680    0.55950    0.03420    1.000
    N8       N        0.98370    0.56090    0.46550    1.000
    Cu2      Cu       0.24999    0.74881    0.74996    1.000
    C25      C        0.15100    0.34030    0.92290    1.000
    H21      H        0.18770    0.25870    0.95740    1.000
    C26      C        0.04580    0.32940    0.91340    1.000
    C27      C        0.05380    0.58390    0.82350    1.000
    H22      H        0.01840    0.67000    0.79180    1.000
    C28      C        0.99610    0.45790    0.86170    1.000
    H23      H        0.92360    0.45690    0.85350    1.000
    C29      C        0.20480    0.47250    0.88150    1.000
    H24      H        0.27710    0.47900    0.89070    1.000
    C30      C        0.41420    0.16950    0.94850    1.000
    C31      C        0.36120    0.04060    0.99250    1.000
    H25      H        0.35120    0.03860    0.06070    1.000
    C32      C        0.32270    0.91380    0.93360    1.000
    H26      H        0.28600    0.82830    0.96420    1.000
    C33      C        0.42790    0.16240    0.84780    1.000
    H27      H        0.46310    0.24720    0.81500    1.000
    C34      C        0.38920    0.02940    0.79570    1.000
    H28      H        0.40150    0.02480    0.72790    1.000
    N9       N        0.15670    0.59140    0.82860    1.000
    N10      N        0.33490    0.90700    0.83720    1.000
    C35      C        0.45510    0.33130    0.58730    1.000
    C36      C        0.34900    0.34080    0.57700    1.000
    H29      H        0.31280    0.25880    0.54240    1.000
    C37      C        0.50340    0.45690    0.63760    1.000
    H30      H        0.57610    0.45590    0.64520    1.000
    C38      C        0.44630    0.58330    0.67650    1.000
    H31      H        0.48180    0.66800    0.70920    1.000
    C39      C        0.29520    0.47200    0.61780    1.000
    H32      H        0.22290    0.47820    0.60880    1.000
    N11      N        0.34360    0.59190    0.67020    1.000
    N12      N        0.16540    0.90760    0.66290    1.000
    C40      C        0.08610    0.16940    0.55150    1.000
    C41      C        0.13830    0.04210    0.50780    1.000
    H33      H        0.14800    0.04130    0.43950    1.000
    C42      C        0.17720    0.91250    0.56570    1.000
    H34      H        0.21290    0.82620    0.53480    1.000
    C43      C        0.07180    0.16090    0.65280    1.000
    H35      H        0.03590    0.24480    0.68580    1.000
    C44      C        0.11080    0.02850    0.70380    1.000
    H36      H        0.09830    0.02320    0.77150    1.000
    C45      C        0.05040    0.30980    0.49150    1.000
    H37      H        0.05270    0.30440    0.42270    1.000
    C46      C        0.98720    0.18800    0.95320    1.000
    H38      H        0.91440    0.19370    0.95790    1.000
    C47      C        0.51280    0.18810    0.54780    1.000
    H39      H        0.58570    0.19190    0.54510    1.000
    N13      N        0.46580    0.06020    0.51760    1.000
    N14      N        0.03460    0.05880    0.98120    1.000
    C48      C        0.45070    0.30780    0.00790    1.000
    H40      H        0.45060    0.30000    0.07660    1.000
    N15      N        0.48320    0.44050    0.96580    1.000
    N16      N        0.01630    0.43910    0.53450    1.000
