# CIF file generated by openbabel 3.1.0, see https://openbabel.org
data_I
_chemical_name_common 'image0'
_cell_length_a 26.1174
_cell_length_b 26.1174
_cell_length_c 19.491
_cell_angle_alpha 90
_cell_angle_beta 90
_cell_angle_gamma 120
_space_group_name_H-M_alt 'P 1'
_space_group_name_Hall 'P 1'
loop_
    _symmetry_equiv_pos_as_xyz
    x,y,z
loop_
    _atom_site_label
    _atom_site_type_symbol
    _atom_site_fract_x
    _atom_site_fract_y
    _atom_site_fract_z
    _atom_site_occupancy
    Zn1      Zn       0.43551    0.33203    0.59613    1.000
    C1       C        0.35820    0.32500    0.71200    1.000
    H1       H        0.32920    0.32580    0.68310    1.000
    N1       N        0.40670    0.32380    0.69150    1.000
    O1       O        0.50810    0.32210    0.69480    1.000
    C2       C        0.55860    0.37770    0.53640    1.000
    H2       H        0.55040    0.33990    0.52090    1.000
    N2       N        0.51820    0.39540    0.56660    1.000
    C3       C        0.54940    0.39850    0.52800    1.000
    H3       H        0.57570    0.41750    0.49070    1.000
    N3       N        0.50920    0.40910    0.59170    1.000
    O2       O        0.54860    0.53320    0.62260    1.000
    O3       O        0.55780    0.52570    0.67730    1.000
    N4       N        0.43170    0.26028    0.56140    1.000
    C4       C        0.42930    0.24120    0.49690    1.000
    C5       C        0.42770    0.26870    0.43480    1.000
    H4       H        0.42760    0.30500    0.43430    1.000
    C6       C        0.42620    0.23980    0.37590    1.000
    H5       H        0.42520    0.25670    0.33310    1.000
    N5       N        0.44000    0.27700    0.31300    1.000
    O4       O        0.42920    0.31440    0.30990    1.000
    N6       N        0.37600    0.33880    0.54020    1.000
    C7       C        0.32010    0.29710    0.52550    1.000
    C8       C        0.28610    0.23890    0.55230    1.000
    H6       H        0.30010    0.22310    0.58660    1.000
    C9       C        0.22960    0.20730    0.52270    1.000
    H7       H        0.20530    0.16720    0.53580    1.000
    N7       N        0.19700    0.14180    0.55310    1.000
    O5       O        0.14340    0.11550    0.51360    1.000
    Zn2      Zn       0.66797    0.10348    0.59613    1.000
    C10      C        0.67500    0.03320    0.71200    1.000
    H8       H        0.67420    0.00340    0.68310    1.000
    N8       N        0.67620    0.08290    0.69150    1.000
    O6       O        0.67790    0.18600    0.69480    1.000
    C11      C        0.62230    0.18090    0.53640    1.000
    H9       H        0.66010    0.21050    0.52090    1.000
    N9       N        0.60460    0.12280    0.56660    1.000
    C12      C        0.60150    0.15090    0.52800    1.000
    H10      H        0.58250    0.15820    0.49070    1.000
    N10      N        0.59090    0.10010    0.59170    1.000
    O7       O        0.46680    0.01540    0.62260    1.000
    O8       O        0.47430    0.03210    0.67730    1.000
    N11      N        0.73972    0.17142    0.56140    1.000
    C13      C        0.75880    0.18810    0.49690    1.000
    C14      C        0.73130    0.15900    0.43480    1.000
    H11      H        0.69500    0.12260    0.43430    1.000
    C15      C        0.76020    0.18640    0.37590    1.000
    H12      H        0.74330    0.16850    0.33310    1.000
    N12      N        0.72300    0.16300    0.31300    1.000
    O9       O        0.68560    0.11480    0.30990    1.000
    N13      N        0.66120    0.03720    0.54020    1.000
    C16      C        0.70290    0.02300    0.52550    1.000
    C17      C        0.76110    0.04720    0.55230    1.000
    H13      H        0.77690    0.07700    0.58660    1.000
    C18      C        0.79270    0.02230    0.52270    1.000
    H14      H        0.83280    0.03810    0.53580    1.000
    N14      N        0.85820    0.05520    0.55310    1.000
    O10      O        0.88450    0.02790    0.51360    1.000
    Zn3      Zn       0.89652    0.56449    0.59613    1.000
    C19      C        0.96680    0.64180    0.71200    1.000
    H15      H        0.99660    0.67080    0.68310    1.000
    N15      N        0.91710    0.59330    0.69150    1.000
    O11      O        0.81400    0.49190    0.69480    1.000
    C20      C        0.81910    0.44140    0.53640    1.000
    H16      H        0.78950    0.44960    0.52090    1.000
    N16      N        0.87720    0.48180    0.56660    1.000
    C21      C        0.84910    0.45060    0.52800    1.000
    H17      H        0.84180    0.42430    0.49070    1.000
    N17      N        0.89990    0.49080    0.59170    1.000
    O12      O        0.98460    0.45140    0.62260    1.000
    O13      O        0.96790    0.44220    0.67730    1.000
    N18      N        0.82858    0.56830    0.56140    1.000
    C22      C        0.81190    0.57070    0.49690    1.000
    C23      C        0.84100    0.57230    0.43480    1.000
    H18      H        0.87740    0.57240    0.43430    1.000
    C24      C        0.81360    0.57380    0.37590    1.000
    H19      H        0.83150    0.57480    0.33310    1.000
    N19      N        0.83700    0.56000    0.31300    1.000
    O14      O        0.88520    0.57080    0.30990    1.000
    N20      N        0.96280    0.62400    0.54020    1.000
    C25      C        0.97700    0.67990    0.52550    1.000
    C26      C        0.95280    0.71390    0.55230    1.000
    H20      H        0.92300    0.69990    0.58660    1.000
    C27      C        0.97770    0.77040    0.52270    1.000
    H21      H        0.96190    0.79470    0.53580    1.000
    N21      N        0.94480    0.80300    0.55310    1.000
    O15      O        0.97210    0.85660    0.51360    1.000
    Zn4      Zn       0.56449    0.66797    0.09613    1.000
    C28      C        0.64180    0.67500    0.21200    1.000
    H22      H        0.67080    0.67420    0.18310    1.000
    N22      N        0.59330    0.67620    0.19150    1.000
    O16      O        0.49190    0.67790    0.19480    1.000
    C29      C        0.44140    0.62230    0.03640    1.000
    H23      H        0.44960    0.66010    0.02090    1.000
    N23      N        0.48180    0.60460    0.06660    1.000
    C30      C        0.45060    0.60150    0.02800    1.000
    H24      H        0.42430    0.58250    0.99070    1.000
    N24      N        0.49080    0.59090    0.09170    1.000
    O17      O        0.45140    0.46680    0.12260    1.000
    O18      O        0.44220    0.47430    0.17730    1.000
    N25      N        0.56830    0.73972    0.06140    1.000
    C31      C        0.57070    0.75880    0.99690    1.000
    C32      C        0.57230    0.73130    0.93480    1.000
    H25      H        0.57240    0.69500    0.93430    1.000
    C33      C        0.57380    0.76020    0.87590    1.000
    H26      H        0.57480    0.74330    0.83310    1.000
    N26      N        0.56000    0.72300    0.81300    1.000
    O19      O        0.57080    0.68560    0.80990    1.000
    N27      N        0.62400    0.66120    0.04020    1.000
    C34      C        0.67990    0.70290    0.02550    1.000
    C35      C        0.71390    0.76110    0.05230    1.000
    H27      H        0.69990    0.77690    0.08660    1.000
    C36      C        0.77040    0.79270    0.02270    1.000
    H28      H        0.79470    0.83280    0.03580    1.000
    N28      N        0.80300    0.85820    0.05310    1.000
    O20      O        0.85660    0.88450    0.01360    1.000
    Zn5      Zn       0.33203    0.89652    0.09613    1.000
    C37      C        0.32500    0.96680    0.21200    1.000
    H29      H        0.32580    0.99660    0.18310    1.000
    N29      N        0.32380    0.91710    0.19150    1.000
    O21      O        0.32210    0.81400    0.19480    1.000
    C38      C        0.37770    0.81910    0.03640    1.000
    H30      H        0.33990    0.78950    0.02090    1.000
    N30      N        0.39540    0.87720    0.06660    1.000
    C39      C        0.39850    0.84910    0.02800    1.000
    H31      H        0.41750    0.84180    0.99070    1.000
    N31      N        0.40910    0.89990    0.09170    1.000
    O22      O        0.53320    0.98460    0.12260    1.000
    O23      O        0.52570    0.96790    0.17730    1.000
    N32      N        0.26028    0.82858    0.06140    1.000
    C40      C        0.24120    0.81190    0.99690    1.000
    C41      C        0.26870    0.84100    0.93480    1.000
    H32      H        0.30500    0.87740    0.93430    1.000
    C42      C        0.23980    0.81360    0.87590    1.000
    H33      H        0.25670    0.83150    0.83310    1.000
    N33      N        0.27700    0.83700    0.81300    1.000
    O24      O        0.31440    0.88520    0.80990    1.000
    N34      N        0.33880    0.96280    0.04020    1.000
    C43      C        0.29710    0.97700    0.02550    1.000
    C44      C        0.23890    0.95280    0.05230    1.000
    H34      H        0.22310    0.92300    0.08660    1.000
    C45      C        0.20730    0.97770    0.02270    1.000
    H35      H        0.16720    0.96190    0.03580    1.000
    N35      N        0.14180    0.94480    0.05310    1.000
    O25      O        0.11550    0.97210    0.01360    1.000
    Zn6      Zn       0.10348    0.43551    0.09613    1.000
    C46      C        0.03320    0.35820    0.21200    1.000
    H36      H        0.00340    0.32920    0.18310    1.000
    N36      N        0.08290    0.40670    0.19150    1.000
    O26      O        0.18600    0.50810    0.19480    1.000
    C47      C        0.18090    0.55860    0.03640    1.000
    H37      H        0.21050    0.55040    0.02090    1.000
    N37      N        0.12280    0.51820    0.06660    1.000
    C48      C        0.15090    0.54940    0.02800    1.000
    H38      H        0.15820    0.57570    0.99070    1.000
    N38      N        0.10010    0.50920    0.09170    1.000
    O27      O        0.01540    0.54860    0.12260    1.000
    O28      O        0.03210    0.55780    0.17730    1.000
    N39      N        0.17142    0.43170    0.06140    1.000
    C49      C        0.18810    0.42930    0.99690    1.000
    C50      C        0.15900    0.42770    0.93480    1.000
    H39      H        0.12260    0.42760    0.93430    1.000
    C51      C        0.18640    0.42620    0.87590    1.000
    H40      H        0.16850    0.42520    0.83310    1.000
    N40      N        0.16300    0.44000    0.81300    1.000
    O29      O        0.11480    0.42920    0.80990    1.000
    N41      N        0.03720    0.37600    0.04020    1.000
    C52      C        0.02300    0.32010    0.02550    1.000
    C53      C        0.04720    0.28610    0.05230    1.000
    H41      H        0.07700    0.30010    0.08660    1.000
    C54      C        0.02230    0.22960    0.02270    1.000
    H42      H        0.03810    0.20530    0.03580    1.000
    N42      N        0.05520    0.19700    0.05310    1.000
    O30      O        0.02790    0.14340    0.01360    1.000
    Zn7      Zn       0.33203    0.43551    0.40387    1.000
    C55      C        0.32500    0.35820    0.28800    1.000
    H43      H        0.32580    0.32920    0.31690    1.000
    N43      N        0.32380    0.40670    0.30850    1.000
    O31      O        0.32210    0.50810    0.30520    1.000
    C56      C        0.37770    0.55860    0.46360    1.000
    H44      H        0.33990    0.55040    0.47910    1.000
    N44      N        0.39540    0.51820    0.43340    1.000
    C57      C        0.39850    0.54940    0.47200    1.000
    H45      H        0.41750    0.57570    0.50930    1.000
    N45      N        0.40910    0.50920    0.40830    1.000
    O32      O        0.53320    0.54860    0.37740    1.000
    O33      O        0.52570    0.55780    0.32270    1.000
    N46      N        0.26028    0.43170    0.43860    1.000
    C58      C        0.24120    0.42930    0.50310    1.000
    C59      C        0.26870    0.42770    0.56520    1.000
    H46      H        0.30500    0.42760    0.56570    1.000
    C60      C        0.23980    0.42620    0.62410    1.000
    H47      H        0.25670    0.42520    0.66690    1.000
    N47      N        0.27700    0.44000    0.68700    1.000
    O34      O        0.31440    0.42920    0.69010    1.000
    N48      N        0.33880    0.37600    0.45980    1.000
    C61      C        0.29710    0.32010    0.47450    1.000
    C62      C        0.23890    0.28610    0.44770    1.000
    H48      H        0.22310    0.30010    0.41340    1.000
    C63      C        0.20730    0.22960    0.47730    1.000
    H49      H        0.16720    0.20530    0.46420    1.000
    N49      N        0.14180    0.19700    0.44690    1.000
    O35      O        0.11550    0.14340    0.48640    1.000
    Zn8      Zn       0.10348    0.66797    0.40387    1.000
    C64      C        0.03320    0.67500    0.28800    1.000
    H50      H        0.00340    0.67420    0.31690    1.000
    N50      N        0.08290    0.67620    0.30850    1.000
    O36      O        0.18600    0.67790    0.30520    1.000
    C65      C        0.18090    0.62230    0.46360    1.000
    H51      H        0.21050    0.66010    0.47910    1.000
    N51      N        0.12280    0.60460    0.43340    1.000
    C66      C        0.15090    0.60150    0.47200    1.000
    H52      H        0.15820    0.58250    0.50930    1.000
    N52      N        0.10010    0.59090    0.40830    1.000
    O37      O        0.01540    0.46680    0.37740    1.000
    O38      O        0.03210    0.47430    0.32270    1.000
    N53      N        0.17142    0.73972    0.43860    1.000
    C67      C        0.18810    0.75880    0.50310    1.000
    C68      C        0.15900    0.73130    0.56520    1.000
    H53      H        0.12260    0.69500    0.56570    1.000
    C69      C        0.18640    0.76020    0.62410    1.000
    H54      H        0.16850    0.74330    0.66690    1.000
    N54      N        0.16300    0.72300    0.68700    1.000
    O39      O        0.11480    0.68560    0.69010    1.000
    N55      N        0.03720    0.66120    0.45980    1.000
    C70      C        0.02300    0.70290    0.47450    1.000
    C71      C        0.04720    0.76110    0.44770    1.000
    H55      H        0.07700    0.77690    0.41340    1.000
    C72      C        0.02230    0.79270    0.47730    1.000
    H56      H        0.03810    0.83280    0.46420    1.000
    N56      N        0.05520    0.85820    0.44690    1.000
    O40      O        0.02790    0.88450    0.48640    1.000
    Zn9      Zn       0.56449    0.89652    0.40387    1.000
    C73      C        0.64180    0.96680    0.28800    1.000
    H57      H        0.67080    0.99660    0.31690    1.000
    N57      N        0.59330    0.91710    0.30850    1.000
    O41      O        0.49190    0.81400    0.30520    1.000
    C74      C        0.44140    0.81910    0.46360    1.000
    H58      H        0.44960    0.78950    0.47910    1.000
    N58      N        0.48180    0.87720    0.43340    1.000
    C75      C        0.45060    0.84910    0.47200    1.000
    H59      H        0.42430    0.84180    0.50930    1.000
    N59      N        0.49080    0.89990    0.40830    1.000
    O42      O        0.45140    0.98460    0.37740    1.000
    O43      O        0.44220    0.96790    0.32270    1.000
    N60      N        0.56830    0.82858    0.43860    1.000
    C76      C        0.57070    0.81190    0.50310    1.000
    C77      C        0.57230    0.84100    0.56520    1.000
    H60      H        0.57240    0.87740    0.56570    1.000
    C78      C        0.57380    0.81360    0.62410    1.000
    H61      H        0.57480    0.83150    0.66690    1.000
    N61      N        0.56000    0.83700    0.68700    1.000
    O44      O        0.57080    0.88520    0.69010    1.000
    N62      N        0.62400    0.96280    0.45980    1.000
    C79      C        0.67990    0.97700    0.47450    1.000
    C80      C        0.71390    0.95280    0.44770    1.000
    H62      H        0.69990    0.92300    0.41340    1.000
    C81      C        0.77040    0.97770    0.47730    1.000
    H63      H        0.79470    0.96190    0.46420    1.000
    N63      N        0.80300    0.94480    0.44690    1.000
    O45      O        0.85660    0.97210    0.48640    1.000
    Zn10     Zn       0.66797    0.56449    0.90387    1.000
    C82      C        0.67500    0.64180    0.78800    1.000
    H64      H        0.67420    0.67080    0.81690    1.000
    N64      N        0.67620    0.59330    0.80850    1.000
    O46      O        0.67790    0.49190    0.80520    1.000
    C83      C        0.62230    0.44140    0.96360    1.000
    H65      H        0.66010    0.44960    0.97910    1.000
    N65      N        0.60460    0.48180    0.93340    1.000
    C84      C        0.60150    0.45060    0.97200    1.000
    H66      H        0.58250    0.42430    0.00930    1.000
    N66      N        0.59090    0.49080    0.90830    1.000
    O47      O        0.46680    0.45140    0.87740    1.000
    O48      O        0.47430    0.44220    0.82270    1.000
    N67      N        0.73972    0.56830    0.93860    1.000
    C85      C        0.75880    0.57070    0.00310    1.000
    C86      C        0.73130    0.57230    0.06520    1.000
    H67      H        0.69500    0.57240    0.06570    1.000
    C87      C        0.76020    0.57380    0.12410    1.000
    H68      H        0.74330    0.57480    0.16690    1.000
    N68      N        0.72300    0.56000    0.18700    1.000
    O49      O        0.68560    0.57080    0.19010    1.000
    N69      N        0.66120    0.62400    0.95980    1.000
    C88      C        0.70290    0.67990    0.97450    1.000
    C89      C        0.76110    0.71390    0.94770    1.000
    H69      H        0.77690    0.69990    0.91340    1.000
    C90      C        0.79270    0.77040    0.97730    1.000
    H70      H        0.83280    0.79470    0.96420    1.000
    N70      N        0.85820    0.80300    0.94690    1.000
    O50      O        0.88450    0.85660    0.98640    1.000
    Zn11     Zn       0.89652    0.33203    0.90387    1.000
    C91      C        0.96680    0.32500    0.78800    1.000
    H71      H        0.99660    0.32580    0.81690    1.000
    N71      N        0.91710    0.32380    0.80850    1.000
    O51      O        0.81400    0.32210    0.80520    1.000
    C92      C        0.81910    0.37770    0.96360    1.000
    H72      H        0.78950    0.33990    0.97910    1.000
    N72      N        0.87720    0.39540    0.93340    1.000
    C93      C        0.84910    0.39850    0.97200    1.000
    H73      H        0.84180    0.41750    0.00930    1.000
    N73      N        0.89990    0.40910    0.90830    1.000
    O52      O        0.98460    0.53320    0.87740    1.000
    O53      O        0.96790    0.52570    0.82270    1.000
    N74      N        0.82858    0.26028    0.93860    1.000
    C94      C        0.81190    0.24120    0.00310    1.000
    C95      C        0.84100    0.26870    0.06520    1.000
    H74      H        0.87740    0.30500    0.06570    1.000
    C96      C        0.81360    0.23980    0.12410    1.000
    H75      H        0.83150    0.25670    0.16690    1.000
    N75      N        0.83700    0.27700    0.18700    1.000
    O54      O        0.88520    0.31440    0.19010    1.000
    N76      N        0.96280    0.33880    0.95980    1.000
    C97      C        0.97700    0.29710    0.97450    1.000
    C98      C        0.95280    0.23890    0.94770    1.000
    H76      H        0.92300    0.22310    0.91340    1.000
    C99      C        0.97770    0.20730    0.97730    1.000
    H77      H        0.96190    0.16720    0.96420    1.000
    N77      N        0.94480    0.14180    0.94690    1.000
    O55      O        0.97210    0.11550    0.98640    1.000
    Zn12     Zn       0.43551    0.10348    0.90387    1.000
    C100     C        0.35820    0.03320    0.78800    1.000
    H78      H        0.32920    0.00340    0.81690    1.000
    N78      N        0.40670    0.08290    0.80850    1.000
    O56      O        0.50810    0.18600    0.80520    1.000
    C101     C        0.55860    0.18090    0.96360    1.000
    H79      H        0.55040    0.21050    0.97910    1.000
    N79      N        0.51820    0.12280    0.93340    1.000
    C102     C        0.54940    0.15090    0.97200    1.000
    H80      H        0.57570    0.15820    0.00930    1.000
    N80      N        0.50920    0.10010    0.90830    1.000
    O57      O        0.54860    0.01540    0.87740    1.000
    O58      O        0.55780    0.03210    0.82270    1.000
    N81      N        0.43170    0.17142    0.93860    1.000
    C103     C        0.42930    0.18810    0.00310    1.000
    C104     C        0.42770    0.15900    0.06520    1.000
    H81      H        0.42760    0.12260    0.06570    1.000
    C105     C        0.42620    0.18640    0.12410    1.000
    H82      H        0.42520    0.16850    0.16690    1.000
    N82      N        0.44000    0.16300    0.18700    1.000
    O59      O        0.42920    0.11480    0.19010    1.000
    N83      N        0.37600    0.03720    0.95980    1.000
    C106     C        0.32010    0.02300    0.97450    1.000
    C107     C        0.28610    0.04720    0.94770    1.000
    H83      H        0.30010    0.07700    0.91340    1.000
    C108     C        0.22960    0.02230    0.97730    1.000
    H84      H        0.20530    0.03810    0.96420    1.000
    N84      N        0.19700    0.05520    0.94690    1.000
    O60      O        0.14340    0.02790    0.98640    1.000
    Zn13     Zn       0.56449    0.66797    0.40387    1.000
    C109     C        0.64180    0.67500    0.28800    1.000
    H85      H        0.67080    0.67420    0.31690    1.000
    N85      N        0.59330    0.67620    0.30850    1.000
    O61      O        0.49190    0.67790    0.30520    1.000
    C110     C        0.44140    0.62230    0.46360    1.000
    H86      H        0.44960    0.66010    0.47910    1.000
    N86      N        0.48180    0.60460    0.43340    1.000
    C111     C        0.45060    0.60150    0.47200    1.000
    H87      H        0.42430    0.58250    0.50930    1.000
    N87      N        0.49080    0.59090    0.40830    1.000
    O62      O        0.45140    0.46680    0.37740    1.000
    O63      O        0.44220    0.47430    0.32270    1.000
    N88      N        0.56830    0.73972    0.43860    1.000
    C112     C        0.57070    0.75880    0.50310    1.000
    C113     C        0.57230    0.73130    0.56520    1.000
    H88      H        0.57240    0.69500    0.56570    1.000
    C114     C        0.57380    0.76020    0.62410    1.000
    H89      H        0.57480    0.74330    0.66690    1.000
    N89      N        0.56000    0.72300    0.68700    1.000
    O64      O        0.57080    0.68560    0.69010    1.000
    N90      N        0.62400    0.66120    0.45980    1.000
    C115     C        0.67990    0.70290    0.47450    1.000
    C116     C        0.71390    0.76110    0.44770    1.000
    H90      H        0.69990    0.77690    0.41340    1.000
    C117     C        0.77040    0.79270    0.47730    1.000
    H91      H        0.79470    0.83280    0.46420    1.000
    N91      N        0.80300    0.85820    0.44690    1.000
    O65      O        0.85660    0.88450    0.48640    1.000
    Zn14     Zn       0.33203    0.89652    0.40387    1.000
    C118     C        0.32500    0.96680    0.28800    1.000
    H92      H        0.32580    0.99660    0.31690    1.000
    N92      N        0.32380    0.91710    0.30850    1.000
    O66      O        0.32210    0.81400    0.30520    1.000
    C119     C        0.37770    0.81910    0.46360    1.000
    H93      H        0.33990    0.78950    0.47910    1.000
    N93      N        0.39540    0.87720    0.43340    1.000
    C120     C        0.39850    0.84910    0.47200    1.000
    H94      H        0.41750    0.84180    0.50930    1.000
    N94      N        0.40910    0.89990    0.40830    1.000
    O67      O        0.53320    0.98460    0.37740    1.000
    O68      O        0.52570    0.96790    0.32270    1.000
    N95      N        0.26028    0.82858    0.43860    1.000
    C121     C        0.24120    0.81190    0.50310    1.000
    C122     C        0.26870    0.84100    0.56520    1.000
    H95      H        0.30500    0.87740    0.56570    1.000
    C123     C        0.23980    0.81360    0.62410    1.000
    H96      H        0.25670    0.83150    0.66690    1.000
    N96      N        0.27700    0.83700    0.68700    1.000
    O69      O        0.31440    0.88520    0.69010    1.000
    N97      N        0.33880    0.96280    0.45980    1.000
    C124     C        0.29710    0.97700    0.47450    1.000
    C125     C        0.23890    0.95280    0.44770    1.000
    H97      H        0.22310    0.92300    0.41340    1.000
    C126     C        0.20730    0.97770    0.47730    1.000
    H98      H        0.16720    0.96190    0.46420    1.000
    N98      N        0.14180    0.94480    0.44690    1.000
    O70      O        0.11550    0.97210    0.48640    1.000
    Zn15     Zn       0.10348    0.43551    0.40387    1.000
    C127     C        0.03320    0.35820    0.28800    1.000
    H99      H        0.00340    0.32920    0.31690    1.000
    N99      N        0.08290    0.40670    0.30850    1.000
    O71      O        0.18600    0.50810    0.30520    1.000
    C128     C        0.18090    0.55860    0.46360    1.000
    H100     H        0.21050    0.55040    0.47910    1.000
    N100     N        0.12280    0.51820    0.43340    1.000
    C129     C        0.15090    0.54940    0.47200    1.000
    H101     H        0.15820    0.57570    0.50930    1.000
    N101     N        0.10010    0.50920    0.40830    1.000
    O72      O        0.01540    0.54860    0.37740    1.000
    O73      O        0.03210    0.55780    0.32270    1.000
    N102     N        0.17142    0.43170    0.43860    1.000
    C130     C        0.18810    0.42930    0.50310    1.000
    C131     C        0.15900    0.42770    0.56520    1.000
    H102     H        0.12260    0.42760    0.56570    1.000
    C132     C        0.18640    0.42620    0.62410    1.000
    H103     H        0.16850    0.42520    0.66690    1.000
    N103     N        0.16300    0.44000    0.68700    1.000
    O74      O        0.11480    0.42920    0.69010    1.000
    N104     N        0.03720    0.37600    0.45980    1.000
    C133     C        0.02300    0.32010    0.47450    1.000
    C134     C        0.04720    0.28610    0.44770    1.000
    H104     H        0.07700    0.30010    0.41340    1.000
    C135     C        0.02230    0.22960    0.47730    1.000
    H105     H        0.03810    0.20530    0.46420    1.000
    N105     N        0.05520    0.19700    0.44690    1.000
    O75      O        0.02790    0.14340    0.48640    1.000
    Zn16     Zn       0.43551    0.33203    0.90387    1.000
    C136     C        0.35820    0.32500    0.78800    1.000
    H106     H        0.32920    0.32580    0.81690    1.000
    N106     N        0.40670    0.32380    0.80850    1.000
    O76      O        0.50810    0.32210    0.80520    1.000
    C137     C        0.55860    0.37770    0.96360    1.000
    H107     H        0.55040    0.33990    0.97910    1.000
    N107     N        0.51820    0.39540    0.93340    1.000
    C138     C        0.54940    0.39850    0.97200    1.000
    H108     H        0.57570    0.41750    0.00930    1.000
    N108     N        0.50920    0.40910    0.90830    1.000
    O77      O        0.54860    0.53320    0.87740    1.000
    O78      O        0.55780    0.52570    0.82270    1.000
    N109     N        0.43170    0.26028    0.93860    1.000
    C139     C        0.42930    0.24120    0.00310    1.000
    C140     C        0.42770    0.26870    0.06520    1.000
    H109     H        0.42760    0.30500    0.06570    1.000
    C141     C        0.42620    0.23980    0.12410    1.000
    H110     H        0.42520    0.25670    0.16690    1.000
    N110     N        0.44000    0.27700    0.18700    1.000
    O79      O        0.42920    0.31440    0.19010    1.000
    N111     N        0.37600    0.33880    0.95980    1.000
    C142     C        0.32010    0.29710    0.97450    1.000
    C143     C        0.28610    0.23890    0.94770    1.000
    H111     H        0.30010    0.22310    0.91340    1.000
    C144     C        0.22960    0.20730    0.97730    1.000
    H112     H        0.20530    0.16720    0.96420    1.000
    N112     N        0.19700    0.14180    0.94690    1.000
    O80      O        0.14340    0.11550    0.98640    1.000
    Zn17     Zn       0.66797    0.10348    0.90387    1.000
    C145     C        0.67500    0.03320    0.78800    1.000
    H113     H        0.67420    0.00340    0.81690    1.000
    N113     N        0.67620    0.08290    0.80850    1.000
    O81      O        0.67790    0.18600    0.80520    1.000
    C146     C        0.62230    0.18090    0.96360    1.000
    H114     H        0.66010    0.21050    0.97910    1.000
    N114     N        0.60460    0.12280    0.93340    1.000
    C147     C        0.60150    0.15090    0.97200    1.000
    H115     H        0.58250    0.15820    0.00930    1.000
    N115     N        0.59090    0.10010    0.90830    1.000
    O82      O        0.46680    0.01540    0.87740    1.000
    O83      O        0.47430    0.03210    0.82270    1.000
    N116     N        0.73972    0.17142    0.93860    1.000
    C148     C        0.75880    0.18810    0.00310    1.000
    C149     C        0.73130    0.15900    0.06520    1.000
    H116     H        0.69500    0.12260    0.06570    1.000
    C150     C        0.76020    0.18640    0.12410    1.000
    H117     H        0.74330    0.16850    0.16690    1.000
    N117     N        0.72300    0.16300    0.18700    1.000
    O84      O        0.68560    0.11480    0.19010    1.000
    N118     N        0.66120    0.03720    0.95980    1.000
    C151     C        0.70290    0.02300    0.97450    1.000
    C152     C        0.76110    0.04720    0.94770    1.000
    H118     H        0.77690    0.07700    0.91340    1.000
    C153     C        0.79270    0.02230    0.97730    1.000
    H119     H        0.83280    0.03810    0.96420    1.000
    N119     N        0.85820    0.05520    0.94690    1.000
    O85      O        0.88450    0.02790    0.98640    1.000
    Zn18     Zn       0.89652    0.56449    0.90387    1.000
    C154     C        0.96680    0.64180    0.78800    1.000
    H120     H        0.99660    0.67080    0.81690    1.000
    N120     N        0.91710    0.59330    0.80850    1.000
    O86      O        0.81400    0.49190    0.80520    1.000
    C155     C        0.81910    0.44140    0.96360    1.000
    H121     H        0.78950    0.44960    0.97910    1.000
    N121     N        0.87720    0.48180    0.93340    1.000
    C156     C        0.84910    0.45060    0.97200    1.000
    H122     H        0.84180    0.42430    0.00930    1.000
    N122     N        0.89990    0.49080    0.90830    1.000
    O87      O        0.98460    0.45140    0.87740    1.000
    O88      O        0.96790    0.44220    0.82270    1.000
    N123     N        0.82858    0.56830    0.93860    1.000
    C157     C        0.81190    0.57070    0.00310    1.000
    C158     C        0.84100    0.57230    0.06520    1.000
    H123     H        0.87740    0.57240    0.06570    1.000
    C159     C        0.81360    0.57380    0.12410    1.000
    H124     H        0.83150    0.57480    0.16690    1.000
    N124     N        0.83700    0.56000    0.18700    1.000
    O89      O        0.88520    0.57080    0.19010    1.000
    N125     N        0.96280    0.62400    0.95980    1.000
    C160     C        0.97700    0.67990    0.97450    1.000
    C161     C        0.95280    0.71390    0.94770    1.000
    H125     H        0.92300    0.69990    0.91340    1.000
    C162     C        0.97770    0.77040    0.97730    1.000
    H126     H        0.96190    0.79470    0.96420    1.000
    N126     N        0.94480    0.80300    0.94690    1.000
    O90      O        0.97210    0.85660    0.98640    1.000
    Zn19     Zn       0.66797    0.56449    0.59613    1.000
    C163     C        0.67500    0.64180    0.71200    1.000
    H127     H        0.67420    0.67080    0.68310    1.000
    N127     N        0.67620    0.59330    0.69150    1.000
    O91      O        0.67790    0.49190    0.69480    1.000
    C164     C        0.62230    0.44140    0.53640    1.000
    H128     H        0.66010    0.44960    0.52090    1.000
    N128     N        0.60460    0.48180    0.56660    1.000
    C165     C        0.60150    0.45060    0.52800    1.000
    H129     H        0.58250    0.42430    0.49070    1.000
    N129     N        0.59090    0.49080    0.59170    1.000
    O92      O        0.46680    0.45140    0.62260    1.000
    O93      O        0.47430    0.44220    0.67730    1.000
    N130     N        0.73972    0.56830    0.56140    1.000
    C166     C        0.75880    0.57070    0.49690    1.000
    C167     C        0.73130    0.57230    0.43480    1.000
    H130     H        0.69500    0.57240    0.43430    1.000
    C168     C        0.76020    0.57380    0.37590    1.000
    H131     H        0.74330    0.57480    0.33310    1.000
    N131     N        0.72300    0.56000    0.31300    1.000
    O94      O        0.68560    0.57080    0.30990    1.000
    N132     N        0.66120    0.62400    0.54020    1.000
    C169     C        0.70290    0.67990    0.52550    1.000
    C170     C        0.76110    0.71390    0.55230    1.000
    H132     H        0.77690    0.69990    0.58660    1.000
    C171     C        0.79270    0.77040    0.52270    1.000
    H133     H        0.83280    0.79470    0.53580    1.000
    N133     N        0.85820    0.80300    0.55310    1.000
    O95      O        0.88450    0.85660    0.51360    1.000
    Zn20     Zn       0.89652    0.33203    0.59613    1.000
    C172     C        0.96680    0.32500    0.71200    1.000
    H134     H        0.99660    0.32580    0.68310    1.000
    N134     N        0.91710    0.32380    0.69150    1.000
    O96      O        0.81400    0.32210    0.69480    1.000
    C173     C        0.81910    0.37770    0.53640    1.000
    H135     H        0.78950    0.33990    0.52090    1.000
    N135     N        0.87720    0.39540    0.56660    1.000
    C174     C        0.84910    0.39850    0.52800    1.000
    H136     H        0.84180    0.41750    0.49070    1.000
    N136     N        0.89990    0.40910    0.59170    1.000
    O97      O        0.98460    0.53320    0.62260    1.000
    O98      O        0.96790    0.52570    0.67730    1.000
    N137     N        0.82858    0.26028    0.56140    1.000
    C175     C        0.81190    0.24120    0.49690    1.000
    C176     C        0.84100    0.26870    0.43480    1.000
    H137     H        0.87740    0.30500    0.43430    1.000
    C177     C        0.81360    0.23980    0.37590    1.000
    H138     H        0.83150    0.25670    0.33310    1.000
    N138     N        0.83700    0.27700    0.31300    1.000
    O99      O        0.88520    0.31440    0.30990    1.000
    N139     N        0.96280    0.33880    0.54020    1.000
    C178     C        0.97700    0.29710    0.52550    1.000
    C179     C        0.95280    0.23890    0.55230    1.000
    H139     H        0.92300    0.22310    0.58660    1.000
    C180     C        0.97770    0.20730    0.52270    1.000
    H140     H        0.96190    0.16720    0.53580    1.000
    N140     N        0.94480    0.14180    0.55310    1.000
    O100     O        0.97210    0.11550    0.51360    1.000
    Zn21     Zn       0.43551    0.10348    0.59613    1.000
    C181     C        0.35820    0.03320    0.71200    1.000
    H141     H        0.32920    0.00340    0.68310    1.000
    N141     N        0.40670    0.08290    0.69150    1.000
    O101     O        0.50810    0.18600    0.69480    1.000
    C182     C        0.55860    0.18090    0.53640    1.000
    H142     H        0.55040    0.21050    0.52090    1.000
    N142     N        0.51820    0.12280    0.56660    1.000
    C183     C        0.54940    0.15090    0.52800    1.000
    H143     H        0.57570    0.15820    0.49070    1.000
    N143     N        0.50920    0.10010    0.59170    1.000
    O102     O        0.54860    0.01540    0.62260    1.000
    O103     O        0.55780    0.03210    0.67730    1.000
    N144     N        0.43170    0.17142    0.56140    1.000
    C184     C        0.42930    0.18810    0.49690    1.000
    C185     C        0.42770    0.15900    0.43480    1.000
    H144     H        0.42760    0.12260    0.43430    1.000
    C186     C        0.42620    0.18640    0.37590    1.000
    H145     H        0.42520    0.16850    0.33310    1.000
    N145     N        0.44000    0.16300    0.31300    1.000
    O104     O        0.42920    0.11480    0.30990    1.000
    N146     N        0.37600    0.03720    0.54020    1.000
    C187     C        0.32010    0.02300    0.52550    1.000
    C188     C        0.28610    0.04720    0.55230    1.000
    H146     H        0.30010    0.07700    0.58660    1.000
    C189     C        0.22960    0.02230    0.52270    1.000
    H147     H        0.20530    0.03810    0.53580    1.000
    N147     N        0.19700    0.05520    0.55310    1.000
    O105     O        0.14340    0.02790    0.51360    1.000
    Zn22     Zn       0.33203    0.43551    0.09613    1.000
    C190     C        0.32500    0.35820    0.21200    1.000
    H148     H        0.32580    0.32920    0.18310    1.000
    N148     N        0.32380    0.40670    0.19150    1.000
    O106     O        0.32210    0.50810    0.19480    1.000
    C191     C        0.37770    0.55860    0.03640    1.000
    H149     H        0.33990    0.55040    0.02090    1.000
    N149     N        0.39540    0.51820    0.06660    1.000
    C192     C        0.39850    0.54940    0.02800    1.000
    H150     H        0.41750    0.57570    0.99070    1.000
    N150     N        0.40910    0.50920    0.09170    1.000
    O107     O        0.53320    0.54860    0.12260    1.000
    O108     O        0.52570    0.55780    0.17730    1.000
    N151     N        0.26028    0.43170    0.06140    1.000
    C193     C        0.24120    0.42930    0.99690    1.000
    C194     C        0.26870    0.42770    0.93480    1.000
    H151     H        0.30500    0.42760    0.93430    1.000
    C195     C        0.23980    0.42620    0.87590    1.000
    H152     H        0.25670    0.42520    0.83310    1.000
    N152     N        0.27700    0.44000    0.81300    1.000
    O109     O        0.31440    0.42920    0.80990    1.000
    N153     N        0.33880    0.37600    0.04020    1.000
    C196     C        0.29710    0.32010    0.02550    1.000
    C197     C        0.23890    0.28610    0.05230    1.000
    H153     H        0.22310    0.30010    0.08660    1.000
    C198     C        0.20730    0.22960    0.02270    1.000
    H154     H        0.16720    0.20530    0.03580    1.000
    N154     N        0.14180    0.19700    0.05310    1.000
    O110     O        0.11550    0.14340    0.01360    1.000
    Zn23     Zn       0.10348    0.66797    0.09613    1.000
    C199     C        0.03320    0.67500    0.21200    1.000
    H155     H        0.00340    0.67420    0.18310    1.000
    N155     N        0.08290    0.67620    0.19150    1.000
    O111     O        0.18600    0.67790    0.19480    1.000
    C200     C        0.18090    0.62230    0.03640    1.000
    H156     H        0.21050    0.66010    0.02090    1.000
    N156     N        0.12280    0.60460    0.06660    1.000
    C201     C        0.15090    0.60150    0.02800    1.000
    H157     H        0.15820    0.58250    0.99070    1.000
    N157     N        0.10010    0.59090    0.09170    1.000
    O112     O        0.01540    0.46680    0.12260    1.000
    O113     O        0.03210    0.47430    0.17730    1.000
    N158     N        0.17142    0.73972    0.06140    1.000
    C202     C        0.18810    0.75880    0.99690    1.000
    C203     C        0.15900    0.73130    0.93480    1.000
    H158     H        0.12260    0.69500    0.93430    1.000
    C204     C        0.18640    0.76020    0.87590    1.000
    H159     H        0.16850    0.74330    0.83310    1.000
    N159     N        0.16300    0.72300    0.81300    1.000
    O114     O        0.11480    0.68560    0.80990    1.000
    N160     N        0.03720    0.66120    0.04020    1.000
    C205     C        0.02300    0.70290    0.02550    1.000
    C206     C        0.04720    0.76110    0.05230    1.000
    H160     H        0.07700    0.77690    0.08660    1.000
    C207     C        0.02230    0.79270    0.02270    1.000
    H161     H        0.03810    0.83280    0.03580    1.000
    N161     N        0.05520    0.85820    0.05310    1.000
    O115     O        0.02790    0.88450    0.01360    1.000
    Zn24     Zn       0.56449    0.89652    0.09613    1.000
    C208     C        0.64180    0.96680    0.21200    1.000
    H162     H        0.67080    0.99660    0.18310    1.000
    N162     N        0.59330    0.91710    0.19150    1.000
    O116     O        0.49190    0.81400    0.19480    1.000
    C209     C        0.44140    0.81910    0.03640    1.000
    H163     H        0.44960    0.78950    0.02090    1.000
    N163     N        0.48180    0.87720    0.06660    1.000
    C210     C        0.45060    0.84910    0.02800    1.000
    H164     H        0.42430    0.84180    0.99070    1.000
    N164     N        0.49080    0.89990    0.09170    1.000
    O117     O        0.45140    0.98460    0.12260    1.000
    O118     O        0.44220    0.96790    0.17730    1.000
    N165     N        0.56830    0.82858    0.06140    1.000
    C211     C        0.57070    0.81190    0.99690    1.000
    C212     C        0.57230    0.84100    0.93480    1.000
    H165     H        0.57240    0.87740    0.93430    1.000
    C213     C        0.57380    0.81360    0.87590    1.000
    H166     H        0.57480    0.83150    0.83310    1.000
    N166     N        0.56000    0.83700    0.81300    1.000
    O119     O        0.57080    0.88520    0.80990    1.000
    N167     N        0.62400    0.96280    0.04020    1.000
    C214     C        0.67990    0.97700    0.02550    1.000
    C215     C        0.71390    0.95280    0.05230    1.000
    H167     H        0.69990    0.92300    0.08660    1.000
    C216     C        0.77040    0.97770    0.02270    1.000
    H168     H        0.79470    0.96190    0.03580    1.000
    N168     N        0.80300    0.94480    0.05310    1.000
    O120     O        0.85660    0.97210    0.01360    1.000
    C217     C        0.43060    0.32220    0.75000    1.000
    N169     N        0.48610    0.32270    0.75000    1.000
    C218     C        0.67780    0.10840    0.75000    1.000
    N170     N        0.67730    0.16340    0.75000    1.000
    C219     C        0.89160    0.56940    0.75000    1.000
    N171     N        0.83660    0.51390    0.75000    1.000
    C220     C        0.56940    0.67780    0.25000    1.000
    N172     N        0.51390    0.67730    0.25000    1.000
    C221     C        0.32220    0.89160    0.25000    1.000
    N173     N        0.32270    0.83660    0.25000    1.000
    C222     C        0.10840    0.43060    0.25000    1.000
    N174     N        0.16340    0.48610    0.25000    1.000
    C223     C        0.32220    0.43060    0.25000    1.000
    N175     N        0.32270    0.48610    0.25000    1.000
    C224     C        0.10840    0.67780    0.25000    1.000
    N176     N        0.16340    0.67730    0.25000    1.000
    C225     C        0.56940    0.89160    0.25000    1.000
    N177     N        0.51390    0.83660    0.25000    1.000
    C226     C        0.67780    0.56940    0.75000    1.000
    N178     N        0.67730    0.51390    0.75000    1.000
    C227     C        0.89160    0.32220    0.75000    1.000
    N179     N        0.83660    0.32270    0.75000    1.000
    C228     C        0.43060    0.10840    0.75000    1.000
    N180     N        0.48610    0.16340    0.75000    1.000
    C229     C        0.55190    0.44810    0.57550    1.000
    C230     C        0.54480    0.45520    0.60200    1.000
    N181     N        0.52500    0.47500    0.65800    1.000
    N182     N        0.51890    0.48110    0.61100    1.000
    C231     C        0.55190    0.10380    0.57550    1.000
    C232     C        0.54480    0.08960    0.60200    1.000
    N183     N        0.52500    0.05000    0.65800    1.000
    N184     N        0.51890    0.03780    0.61100    1.000
    C233     C        0.89620    0.44810    0.57550    1.000
    C234     C        0.91040    0.45520    0.60200    1.000
    N185     N        0.95000    0.47500    0.65800    1.000
    N186     N        0.96220    0.48110    0.61100    1.000
    C235     C        0.44810    0.55190    0.07550    1.000
    C236     C        0.45520    0.54480    0.10200    1.000
    N187     N        0.47500    0.52500    0.15800    1.000
    N188     N        0.48110    0.51890    0.11100    1.000
    C237     C        0.44810    0.89620    0.07550    1.000
    C238     C        0.45520    0.91040    0.10200    1.000
    N189     N        0.47500    0.95000    0.15800    1.000
    N190     N        0.48110    0.96220    0.11100    1.000
    C239     C        0.10380    0.55190    0.07550    1.000
    C240     C        0.08960    0.54480    0.10200    1.000
    N191     N        0.05000    0.52500    0.15800    1.000
    N192     N        0.03780    0.51890    0.11100    1.000
    C241     C        0.44810    0.55190    0.42450    1.000
    C242     C        0.45520    0.54480    0.39800    1.000
    N193     N        0.47500    0.52500    0.34200    1.000
    N194     N        0.48110    0.51890    0.38900    1.000
    C243     C        0.10380    0.55190    0.42450    1.000
    C244     C        0.08960    0.54480    0.39800    1.000
    N195     N        0.05000    0.52500    0.34200    1.000
    N196     N        0.03780    0.51890    0.38900    1.000
    C245     C        0.44810    0.89620    0.42450    1.000
    C246     C        0.45520    0.91040    0.39800    1.000
    N197     N        0.47500    0.95000    0.34200    1.000
    N198     N        0.48110    0.96220    0.38900    1.000
    C247     C        0.55190    0.44810    0.92450    1.000
    C248     C        0.54480    0.45520    0.89800    1.000
    N199     N        0.52500    0.47500    0.84200    1.000
    N200     N        0.51890    0.48110    0.88900    1.000
    C249     C        0.89620    0.44810    0.92450    1.000
    C250     C        0.91040    0.45520    0.89800    1.000
    N201     N        0.95000    0.47500    0.84200    1.000
    N202     N        0.96220    0.48110    0.88900    1.000
    C251     C        0.55190    0.10380    0.92450    1.000
    C252     C        0.54480    0.08960    0.89800    1.000
    N203     N        0.52500    0.05000    0.84200    1.000
    N204     N        0.51890    0.03780    0.88900    1.000
    C253     C        0.43290    0.21645    0.60070    1.000
    H169     H        0.43430    0.21715    0.64940    1.000
    O121     O        0.22370    0.11185    0.59100    1.000
    C254     C        0.78355    0.21645    0.60070    1.000
    H170     H        0.78285    0.21715    0.64940    1.000
    O122     O        0.88815    0.11185    0.59100    1.000
    C255     C        0.78355    0.56710    0.60070    1.000
    H171     H        0.78285    0.56570    0.64940    1.000
    O123     O        0.88815    0.77630    0.59100    1.000
    C256     C        0.56710    0.78355    0.10070    1.000
    H172     H        0.56570    0.78285    0.14940    1.000
    O124     O        0.77630    0.88815    0.09100    1.000
    C257     C        0.21645    0.78355    0.10070    1.000
    H173     H        0.21715    0.78285    0.14940    1.000
    O125     O        0.11185    0.88815    0.09100    1.000
    C258     C        0.21645    0.43290    0.10070    1.000
    H174     H        0.21715    0.43430    0.14940    1.000
    O126     O        0.11185    0.22370    0.09100    1.000
    C259     C        0.21645    0.43290    0.39930    1.000
    H175     H        0.21715    0.43430    0.35060    1.000
    O127     O        0.11185    0.22370    0.40900    1.000
    C260     C        0.21645    0.78355    0.39930    1.000
    H176     H        0.21715    0.78285    0.35060    1.000
    O128     O        0.11185    0.88815    0.40900    1.000
    C261     C        0.56710    0.78355    0.39930    1.000
    H177     H        0.56570    0.78285    0.35060    1.000
    O129     O        0.77630    0.88815    0.40900    1.000
    C262     C        0.78355    0.56710    0.89930    1.000
    H178     H        0.78285    0.56570    0.85060    1.000
    O130     O        0.88815    0.77630    0.90900    1.000
    C263     C        0.78355    0.21645    0.89930    1.000
    H179     H        0.78285    0.21715    0.85060    1.000
    O131     O        0.88815    0.11185    0.90900    1.000
    C264     C        0.43290    0.21645    0.89930    1.000
    H180     H        0.43430    0.21715    0.85060    1.000
    O132     O        0.22370    0.11185    0.90900    1.000
    O133     O        0.47300    0.28100    0.25000    1.000
    O134     O        0.71900    0.19200    0.25000    1.000
    O135     O        0.80800    0.52700    0.25000    1.000
    O136     O        0.52700    0.71900    0.75000    1.000
    O137     O        0.28100    0.80800    0.75000    1.000
    O138     O        0.19200    0.47300    0.75000    1.000
    O139     O        0.28100    0.47300    0.75000    1.000
    O140     O        0.19200    0.71900    0.75000    1.000
    O141     O        0.52700    0.80800    0.75000    1.000
    O142     O        0.71900    0.52700    0.25000    1.000
    O143     O        0.80800    0.28100    0.25000    1.000
    O144     O        0.47300    0.19200    0.25000    1.000
    C265     C        0.38520    0.38520    0.50000    1.000
    H181     H        0.42160    0.42160    0.50000    1.000
    C266     C        0.61480    0.00000    0.50000    1.000
    H182     H        0.57840    0.00000    0.50000    1.000
    C267     C        0.00000    0.61480    0.50000    1.000
    H183     H        0.00000    0.57840    0.50000    1.000
    C268     C        0.61480    0.61480    0.00000    1.000
    H184     H        0.57840    0.57840    0.00000    1.000
    C269     C        0.38520    0.00000    0.00000    1.000
    H185     H        0.42160    0.00000    0.00000    1.000
    C270     C        0.00000    0.38520    0.00000    1.000
    H186     H        0.00000    0.42160    0.00000    1.000
    C271     C        0.61480    0.61480    0.50000    1.000
    H187     H        0.57840    0.57840    0.50000    1.000
    C272     C        0.38520    0.00000    0.50000    1.000
    H188     H        0.42160    0.00000    0.50000    1.000
    C273     C        0.00000    0.38520    0.50000    1.000
    H189     H        0.00000    0.42160    0.50000    1.000
    C274     C        0.38520    0.38520    0.00000    1.000
    H190     H        0.42160    0.42160    0.00000    1.000
    C275     C        0.61480    0.00000    0.00000    1.000
    H191     H        0.57840    0.00000    0.00000    1.000
    C276     C        0.00000    0.61480    0.00000    1.000
    H192     H        0.00000    0.57840    0.00000    1.000
