# CIF file generated by openbabel 3.1.0, see https://openbabel.org
data_I
_chemical_name_common 'image0'
_cell_length_a 10.2319
_cell_length_b 10.6531
_cell_length_c 6.221
_cell_angle_alpha 90
_cell_angle_beta 114.485
_cell_angle_gamma 90
_space_group_name_H-M_alt 'P 1'
_space_group_name_Hall 'P 1'
loop_
    _symmetry_equiv_pos_as_xyz
    x,y,z
loop_
    _atom_site_label
    _atom_site_type_symbol
    _atom_site_fract_x
    _atom_site_fract_y
    _atom_site_fract_z
    _atom_site_occupancy
    C1       C        0.31800    0.21130    0.54530    1.000
    H1       H        0.40070    0.26640    0.56820    1.000
    H2       H        0.33370    0.17490    0.70060    1.000
    N1       N        0.31080    0.10920    0.38040    1.000
    H3       H        0.29500    0.14330    0.23580    1.000
    H4       H        0.23420    0.05800    0.36020    1.000
    C2       C        0.81800    0.71130    0.54530    1.000
    H5       H        0.90070    0.76640    0.56820    1.000
    H6       H        0.83370    0.67490    0.70060    1.000
    N2       N        0.81080    0.60920    0.38040    1.000
    H7       H        0.79500    0.64330    0.23580    1.000
    H8       H        0.73420    0.55800    0.36020    1.000
    C3       C        0.68200    0.21130    0.95470    1.000
    H9       H        0.59930    0.26640    0.93180    1.000
    H10      H        0.66630    0.17490    0.79940    1.000
    N3       N        0.68920    0.10920    0.11960    1.000
    H11      H        0.70500    0.14330    0.26420    1.000
    H12      H        0.76580    0.05800    0.13980    1.000
    C4       C        0.18200    0.71130    0.95470    1.000
    H13      H        0.09930    0.76640    0.93180    1.000
    H14      H        0.16630    0.67490    0.79940    1.000
    N4       N        0.18920    0.60920    0.11960    1.000
    H15      H        0.20500    0.64330    0.26420    1.000
    H16      H        0.26580    0.55800    0.13980    1.000
    C5       C        0.68200    0.78870    0.45470    1.000
    H17      H        0.59930    0.73360    0.43180    1.000
    H18      H        0.66630    0.82510    0.29940    1.000
    N5       N        0.68920    0.89080    0.61960    1.000
    H19      H        0.70500    0.85670    0.76420    1.000
    H20      H        0.76580    0.94200    0.63980    1.000
    C6       C        0.18200    0.28870    0.45470    1.000
    H21      H        0.09930    0.23360    0.43180    1.000
    H22      H        0.16630    0.32510    0.29940    1.000
    N6       N        0.18920    0.39080    0.61960    1.000
    H23      H        0.20500    0.35670    0.76420    1.000
    H24      H        0.26580    0.44200    0.63980    1.000
    C7       C        0.31800    0.78870    0.04530    1.000
    H25      H        0.40070    0.73360    0.06820    1.000
    H26      H        0.33370    0.82510    0.20060    1.000
    N7       N        0.31080    0.89080    0.88040    1.000
    H27      H        0.29500    0.85670    0.73580    1.000
    H28      H        0.23420    0.94200    0.86020    1.000
    C8       C        0.81800    0.28870    0.04530    1.000
    H29      H        0.90070    0.23360    0.06820    1.000
    H30      H        0.83370    0.32510    0.20060    1.000
    N8       N        0.81080    0.39080    0.88040    1.000
    H31      H        0.79500    0.35670    0.73580    1.000
    H32      H        0.73420    0.44200    0.86020    1.000
    Ag1      Ag       0.50000    0.00000    0.50000    1.000
    Ag2      Ag       0.00000    0.50000    0.50000    1.000
    Ag3      Ag       0.50000    0.00000    0.00000    1.000
    Ag4      Ag       0.00000    0.50000    0.00000    1.000
