# CIF file generated by openbabel 3.1.0, see https://openbabel.org
data_I
_chemical_name_common 'image0'
_cell_length_a 14.2698
_cell_length_b 14.2698
_cell_length_c 10.066
_cell_angle_alpha 90
_cell_angle_beta 90
_cell_angle_gamma 120
_space_group_name_H-M_alt 'P 1'
_space_group_name_Hall 'P 1'
loop_
    _symmetry_equiv_pos_as_xyz
    x,y,z
loop_
    _atom_site_label
    _atom_site_type_symbol
    _atom_site_fract_x
    _atom_site_fract_y
    _atom_site_fract_z
    _atom_site_occupancy
    Tb1      Tb       0.44103    0.85659    0.21953    1.000
    S1       S        0.66197    0.80623    0.25639    1.000
    S2       S        0.51994    0.99534    0.46868    1.000
    O1       O        0.70390    0.82920    0.12100    1.000
    O2       O        0.59330    0.68840    0.27610    1.000
    O3       O        0.59650    0.85720    0.28580    1.000
    O4       O        0.75260    0.84660    0.35080    1.000
    O5       O        0.54680    0.03030    0.32980    1.000
    O6       O        0.61870    0.02960    0.55070    1.000
    O7       O        0.45180    0.87650    0.46570    1.000
    O8       O        0.46500    0.04780    0.53320    1.000
    O9       O        0.44500    0.72400    0.06830    1.000
    Tb2      Tb       0.14341    0.58444    0.21953    1.000
    S3       S        0.19377    0.85574    0.25639    1.000
    S4       S        0.00466    0.52460    0.46868    1.000
    O10      O        0.17080    0.87470    0.12100    1.000
    O11      O        0.31160    0.90490    0.27610    1.000
    O12      O        0.14280    0.73930    0.28580    1.000
    O13      O        0.15340    0.90600    0.35080    1.000
    O14      O        0.96970    0.51650    0.32980    1.000
    O15      O        0.97040    0.58910    0.55070    1.000
    O16      O        0.12350    0.57530    0.46570    1.000
    O17      O        0.95220    0.41720    0.53320    1.000
    O18      O        0.27600    0.72100    0.06830    1.000
    Tb3      Tb       0.41556    0.55897    0.21953    1.000
    S5       S        0.14426    0.33803    0.25639    1.000
    S6       S        0.47540    0.48006    0.46868    1.000
    O19      O        0.12530    0.29610    0.12100    1.000
    O20      O        0.09510    0.40670    0.27610    1.000
    O21      O        0.26070    0.40350    0.28580    1.000
    O22      O        0.09400    0.24740    0.35080    1.000
    O23      O        0.48350    0.45320    0.32980    1.000
    O24      O        0.41090    0.38130    0.55070    1.000
    O25      O        0.42470    0.54820    0.46570    1.000
    O26      O        0.58280    0.53500    0.53320    1.000
    O27      O        0.27900    0.55500    0.06830    1.000
    Tb4      Tb       0.85659    0.44103    0.71953    1.000
    S7       S        0.80623    0.66197    0.75639    1.000
    S8       S        0.99534    0.51994    0.96868    1.000
    O28      O        0.82920    0.70390    0.62100    1.000
    O29      O        0.68840    0.59330    0.77610    1.000
    O30      O        0.85720    0.59650    0.78580    1.000
    O31      O        0.84660    0.75260    0.85080    1.000
    O32      O        0.03030    0.54680    0.82980    1.000
    O33      O        0.02960    0.61870    0.05070    1.000
    O34      O        0.87650    0.45180    0.96570    1.000
    O35      O        0.04780    0.46500    0.03320    1.000
    O36      O        0.72400    0.44500    0.56830    1.000
    Tb5      Tb       0.58444    0.14341    0.71953    1.000
    S9       S        0.85574    0.19377    0.75639    1.000
    S10      S        0.52460    0.00466    0.96868    1.000
    O37      O        0.87470    0.17080    0.62100    1.000
    O38      O        0.90490    0.31160    0.77610    1.000
    O39      O        0.73930    0.14280    0.78580    1.000
    O40      O        0.90600    0.15340    0.85080    1.000
    O41      O        0.51650    0.96970    0.82980    1.000
    O42      O        0.58910    0.97040    0.05070    1.000
    O43      O        0.57530    0.12350    0.96570    1.000
    O44      O        0.41720    0.95220    0.03320    1.000
    O45      O        0.72100    0.27600    0.56830    1.000
    Tb6      Tb       0.55897    0.41556    0.71953    1.000
    S11      S        0.33803    0.14426    0.75639    1.000
    S12      S        0.48006    0.47540    0.96868    1.000
    O46      O        0.29610    0.12530    0.62100    1.000
    O47      O        0.40670    0.09510    0.77610    1.000
    O48      O        0.40350    0.26070    0.78580    1.000
    O49      O        0.24740    0.09400    0.85080    1.000
    O50      O        0.45320    0.48350    0.82980    1.000
    O51      O        0.38130    0.41090    0.05070    1.000
    O52      O        0.54820    0.42470    0.96570    1.000
    O53      O        0.53500    0.58280    0.03320    1.000
    O54      O        0.55500    0.27900    0.56830    1.000
    S13      S        0.33333    0.66667    0.00955    1.000
    O55      O        0.33333    0.66667    0.86930    1.000
    O56      O        0.33333    0.66667    0.30470    1.000
    S14      S        0.66667    0.33333    0.50955    1.000
    O57      O        0.66667    0.33333    0.36930    1.000
    O58      O        0.66667    0.33333    0.80470    1.000
