# CIF file generated by openbabel 3.1.0, see https://openbabel.org
data_I
_chemical_name_common 'image0'
_cell_length_a 16.8687
_cell_length_b 16.8687
_cell_length_c 28.5613
_cell_angle_alpha 90
_cell_angle_beta 90
_cell_angle_gamma 90
_space_group_name_H-M_alt 'P 1'
_space_group_name_Hall 'P 1'
loop_
    _symmetry_equiv_pos_as_xyz
    x,y,z
loop_
    _atom_site_label
    _atom_site_type_symbol
    _atom_site_fract_x
    _atom_site_fract_y
    _atom_site_fract_z
    _atom_site_occupancy
    Cd1      Cd       0.69351    0.21804    0.00658    1.000
    S1       S        0.60080    0.23465    0.77212    1.000
    S2       S        0.82340    0.31468    0.22680    1.000
    N1       N        0.66851    0.35400    0.99977    1.000
    N2       N        0.66403    0.21316    0.92605    1.000
    N3       N        0.33361    0.26396    0.75657    1.000
    N4       N        0.71496    0.23738    0.08801    1.000
    N5       N        0.80432    0.58287    0.23719    1.000
    C1       C        0.60360    0.38080    0.97900    1.000
    H1       H        0.56970    0.34350    0.96420    1.000
    C2       C        0.58220    0.46060    0.97767    1.000
    H2       H        0.53540    0.47760    0.96210    1.000
    C3       C        0.63190    0.51410    0.99991    1.000
    C4       C        0.70120    0.48750    0.02094    1.000
    H3       H        0.73650    0.52350    0.03570    1.000
    C5       C        0.71720    0.40750    0.01973    1.000
    H4       H        0.76500    0.38910    0.03360    1.000
    C6       C        0.69980    0.26500    0.89767    1.000
    H5       H        0.74090    0.29690    0.91040    1.000
    C7       C        0.68090    0.27490    0.85136    1.000
    H6       H        0.70750    0.31320    0.83270    1.000
    C8       C        0.62170    0.22740    0.83256    1.000
    C9       C        0.58440    0.17200    0.86098    1.000
    H7       H        0.54420    0.13830    0.84890    1.000
    C10      C        0.60770    0.16740    0.90751    1.000
    H8       H        0.58220    0.12970    0.92710    1.000
    C11      C        0.37080    0.29120    0.79490    1.000
    H9       H        0.34000    0.31770    0.81790    1.000
    C12      C        0.45080    0.28310    0.80286    1.000
    H10      H        0.47420    0.30450    0.83030    1.000
    C13      C        0.49680    0.24340    0.77043    1.000
    C14      C        0.45900    0.21310    0.73072    1.000
    H11      H        0.48830    0.18450    0.70780    1.000
    C15      C        0.37930    0.22510    0.72530    1.000
    H12      H        0.35460    0.20480    0.69790    1.000
    C16      C        0.68440    0.29910    0.11150    1.000
    H13      H        0.64030    0.32590    0.09820    1.000
    C17      C        0.71330    0.32590    0.15372    1.000
    H14      H        0.68920    0.36940    0.16930    1.000
    C18      C        0.77850    0.28760    0.17305    1.000
    C19      C        0.80910    0.22180    0.15016    1.000
    H15      H        0.85230    0.19310    0.16300    1.000
    C20      C        0.77540    0.19920    0.10845    1.000
    H16      H        0.79630    0.15380    0.09320    1.000
    C21      C        0.82640    0.54760    0.19696    1.000
    H17      H        0.84040    0.58020    0.17120    1.000
    C22      C        0.82990    0.46700    0.19130    1.000
    H18      H        0.84530    0.44470    0.16210    1.000
    C23      C        0.81040    0.41820    0.22888    1.000
    C24      C        0.78650    0.45330    0.27022    1.000
    H19      H        0.77160    0.42170    0.29630    1.000
    C25      C        0.78450    0.53560    0.27314    1.000
    H20      H        0.76850    0.55930    0.30180    1.000
    Cd2      Cd       0.30649    0.78196    0.50658    1.000
    S3       S        0.39920    0.76535    0.27212    1.000
    S4       S        0.17660    0.68532    0.72680    1.000
    N6       N        0.33149    0.64600    0.49977    1.000
    N7       N        0.33597    0.78684    0.42605    1.000
    N8       N        0.66639    0.73604    0.25657    1.000
    N9       N        0.28504    0.76262    0.58801    1.000
    N10      N        0.19568    0.41713    0.73719    1.000
    C26      C        0.39640    0.61920    0.47900    1.000
    H21      H        0.43030    0.65650    0.46420    1.000
    C27      C        0.41780    0.53940    0.47767    1.000
    H22      H        0.46460    0.52240    0.46210    1.000
    C28      C        0.36810    0.48590    0.49991    1.000
    C29      C        0.29880    0.51250    0.52094    1.000
    H23      H        0.26350    0.47650    0.53570    1.000
    C30      C        0.28280    0.59250    0.51973    1.000
    H24      H        0.23500    0.61090    0.53360    1.000
    C31      C        0.30020    0.73500    0.39767    1.000
    H25      H        0.25910    0.70310    0.41040    1.000
    C32      C        0.31910    0.72510    0.35136    1.000
    H26      H        0.29250    0.68680    0.33270    1.000
    C33      C        0.37830    0.77260    0.33256    1.000
    C34      C        0.41560    0.82800    0.36098    1.000
    H27      H        0.45580    0.86170    0.34890    1.000
    C35      C        0.39230    0.83260    0.40751    1.000
    H28      H        0.41780    0.87030    0.42710    1.000
    C36      C        0.62920    0.70880    0.29490    1.000
    H29      H        0.66000    0.68230    0.31790    1.000
    C37      C        0.54920    0.71690    0.30286    1.000
    H30      H        0.52580    0.69550    0.33030    1.000
    C38      C        0.50320    0.75660    0.27043    1.000
    C39      C        0.54100    0.78690    0.23072    1.000
    H31      H        0.51170    0.81550    0.20780    1.000
    C40      C        0.62070    0.77490    0.22530    1.000
    H32      H        0.64540    0.79520    0.19790    1.000
    C41      C        0.31560    0.70090    0.61150    1.000
    H33      H        0.35970    0.67410    0.59820    1.000
    C42      C        0.28670    0.67410    0.65372    1.000
    H34      H        0.31080    0.63060    0.66930    1.000
    C43      C        0.22150    0.71240    0.67305    1.000
    C44      C        0.19090    0.77820    0.65016    1.000
    H35      H        0.14770    0.80690    0.66300    1.000
    C45      C        0.22460    0.80080    0.60845    1.000
    H36      H        0.20370    0.84620    0.59320    1.000
    C46      C        0.17360    0.45240    0.69696    1.000
    H37      H        0.15960    0.41980    0.67120    1.000
    C47      C        0.17010    0.53300    0.69130    1.000
    H38      H        0.15470    0.55530    0.66210    1.000
    C48      C        0.18960    0.58180    0.72888    1.000
    C49      C        0.21350    0.54670    0.77022    1.000
    H39      H        0.22840    0.57830    0.79630    1.000
    C50      C        0.21550    0.46440    0.77314    1.000
    H40      H        0.23150    0.44070    0.80180    1.000
    Cd3      Cd       0.28196    0.19351    0.25658    1.000
    S5       S        0.26535    0.10080    0.02212    1.000
    S6       S        0.18532    0.32340    0.47680    1.000
    N11      N        0.14600    0.16851    0.24977    1.000
    N12      N        0.28684    0.16403    0.17605    1.000
    N13      N        0.23604    0.83361    0.00657    1.000
    N14      N        0.26262    0.21496    0.33801    1.000
    N15      N        0.91713    0.30432    0.48719    1.000
    C51      C        0.11920    0.10360    0.22900    1.000
    H41      H        0.15650    0.06970    0.21420    1.000
    C52      C        0.03940    0.08220    0.22767    1.000
    H42      H        0.02240    0.03540    0.21210    1.000
    C53      C        0.98590    0.13190    0.24991    1.000
    C54      C        0.01250    0.20120    0.27094    1.000
    H43      H        0.97650    0.23650    0.28570    1.000
    C55      C        0.09250    0.21720    0.26973    1.000
    H44      H        0.11090    0.26500    0.28360    1.000
    C56      C        0.23500    0.19980    0.14767    1.000
    H45      H        0.20310    0.24090    0.16040    1.000
    C57      C        0.22510    0.18090    0.10136    1.000
    H46      H        0.18680    0.20750    0.08270    1.000
    C58      C        0.27260    0.12170    0.08256    1.000
    C59      C        0.32800    0.08440    0.11098    1.000
    H47      H        0.36170    0.04420    0.09890    1.000
    C60      C        0.33260    0.10770    0.15751    1.000
    H48      H        0.37030    0.08220    0.17710    1.000
    C61      C        0.20880    0.87080    0.04490    1.000
    H49      H        0.18230    0.84000    0.06790    1.000
    C62      C        0.21690    0.95080    0.05286    1.000
    H50      H        0.19550    0.97420    0.08030    1.000
    C63      C        0.25660    0.99680    0.02043    1.000
    C64      C        0.28690    0.95900    0.98072    1.000
    H51      H        0.31550    0.98830    0.95780    1.000
    C65      C        0.27490    0.87930    0.97530    1.000
    H52      H        0.29520    0.85460    0.94790    1.000
    C66      C        0.20090    0.18440    0.36150    1.000
    H53      H        0.17410    0.14030    0.34820    1.000
    C67      C        0.17410    0.21330    0.40372    1.000
    H54      H        0.13060    0.18920    0.41930    1.000
    C68      C        0.21240    0.27850    0.42305    1.000
    C69      C        0.27820    0.30910    0.40016    1.000
    H55      H        0.30690    0.35230    0.41300    1.000
    C70      C        0.30080    0.27540    0.35845    1.000
    H56      H        0.34620    0.29630    0.34320    1.000
    C71      C        0.95240    0.32640    0.44696    1.000
    H57      H        0.91980    0.34040    0.42120    1.000
    C72      C        0.03300    0.32990    0.44130    1.000
    H58      H        0.05530    0.34530    0.41210    1.000
    C73      C        0.08180    0.31040    0.47888    1.000
    C74      C        0.04670    0.28650    0.52022    1.000
    H59      H        0.07830    0.27160    0.54630    1.000
    C75      C        0.96440    0.28450    0.52314    1.000
    H60      H        0.94070    0.26850    0.55180    1.000
    Cd4      Cd       0.71804    0.80649    0.75658    1.000
    S7       S        0.73465    0.89920    0.52212    1.000
    S8       S        0.81468    0.67660    0.97680    1.000
    N16      N        0.85400    0.83149    0.74977    1.000
    N17      N        0.71316    0.83597    0.67605    1.000
    N18      N        0.76396    0.16639    0.50657    1.000
    N19      N        0.73738    0.78504    0.83801    1.000
    N20      N        0.08287    0.69568    0.98719    1.000
    C76      C        0.88080    0.89640    0.72900    1.000
    H61      H        0.84350    0.93030    0.71420    1.000
    C77      C        0.96060    0.91780    0.72767    1.000
    H62      H        0.97760    0.96460    0.71210    1.000
    C78      C        0.01410    0.86810    0.74991    1.000
    C79      C        0.98750    0.79880    0.77094    1.000
    H63      H        0.02350    0.76350    0.78570    1.000
    C80      C        0.90750    0.78280    0.76973    1.000
    H64      H        0.88910    0.73500    0.78360    1.000
    C81      C        0.76500    0.80020    0.64767    1.000
    H65      H        0.79690    0.75910    0.66040    1.000
    C82      C        0.77490    0.81910    0.60136    1.000
    H66      H        0.81320    0.79250    0.58270    1.000
    C83      C        0.72740    0.87830    0.58256    1.000
    C84      C        0.67200    0.91560    0.61098    1.000
    H67      H        0.63830    0.95580    0.59890    1.000
    C85      C        0.66740    0.89230    0.65751    1.000
    H68      H        0.62970    0.91780    0.67710    1.000
    C86      C        0.79120    0.12920    0.54490    1.000
    H69      H        0.81770    0.16000    0.56790    1.000
    C87      C        0.78310    0.04920    0.55286    1.000
    H70      H        0.80450    0.02580    0.58030    1.000
    C88      C        0.74340    0.00320    0.52043    1.000
    C89      C        0.71310    0.04100    0.48072    1.000
    H71      H        0.68450    0.01170    0.45780    1.000
    C90      C        0.72510    0.12070    0.47530    1.000
    H72      H        0.70480    0.14540    0.44790    1.000
    C91      C        0.79910    0.81560    0.86150    1.000
    H73      H        0.82590    0.85970    0.84820    1.000
    C92      C        0.82590    0.78670    0.90372    1.000
    H74      H        0.86940    0.81080    0.91930    1.000
    C93      C        0.78760    0.72150    0.92305    1.000
    C94      C        0.72180    0.69090    0.90016    1.000
    H75      H        0.69310    0.64770    0.91300    1.000
    C95      C        0.69920    0.72460    0.85845    1.000
    H76      H        0.65380    0.70370    0.84320    1.000
    C96      C        0.04760    0.67360    0.94696    1.000
    H77      H        0.08020    0.65960    0.92120    1.000
    C97      C        0.96700    0.67010    0.94130    1.000
    H78      H        0.94470    0.65470    0.91210    1.000
    C98      C        0.91820    0.68960    0.97888    1.000
    C99      C        0.95330    0.71350    0.02022    1.000
    H79      H        0.92170    0.72840    0.04630    1.000
    C100     C        0.03560    0.71550    0.02314    1.000
    H80      H        0.05930    0.73150    0.05180    1.000
    Cd5      Cd       0.80649    0.71804    0.24342    1.000
    S9       S        0.89920    0.73465    0.47788    1.000
    S10      S        0.67660    0.81468    0.02320    1.000
    N21      N        0.83149    0.85400    0.25023    1.000
    N22      N        0.83597    0.71316    0.32395    1.000
    N23      N        0.16639    0.76396    0.49343    1.000
    N24      N        0.78504    0.73738    0.16199    1.000
    N25      N        0.69568    0.08287    0.01281    1.000
    C101     C        0.89640    0.88080    0.27100    1.000
    H81      H        0.93030    0.84350    0.28580    1.000
    C102     C        0.91780    0.96060    0.27233    1.000
    H82      H        0.96460    0.97760    0.28790    1.000
    C103     C        0.86810    0.01410    0.25009    1.000
    C104     C        0.79880    0.98750    0.22906    1.000
    H83      H        0.76350    0.02350    0.21430    1.000
    C105     C        0.78280    0.90750    0.23027    1.000
    H84      H        0.73500    0.88910    0.21640    1.000
    C106     C        0.80020    0.76500    0.35233    1.000
    H85      H        0.75910    0.79690    0.33960    1.000
    C107     C        0.81910    0.77490    0.39864    1.000
    H86      H        0.79250    0.81320    0.41730    1.000
    C108     C        0.87830    0.72740    0.41744    1.000
    C109     C        0.91560    0.67200    0.38902    1.000
    H87      H        0.95580    0.63830    0.40110    1.000
    C110     C        0.89230    0.66740    0.34249    1.000
    H88      H        0.91780    0.62970    0.32290    1.000
    C111     C        0.12920    0.79120    0.45510    1.000
    H89      H        0.16000    0.81770    0.43210    1.000
    C112     C        0.04920    0.78310    0.44714    1.000
    H90      H        0.02580    0.80450    0.41970    1.000
    C113     C        0.00320    0.74340    0.47957    1.000
    C114     C        0.04100    0.71310    0.51928    1.000
    H91      H        0.01170    0.68450    0.54220    1.000
    C115     C        0.12070    0.72510    0.52470    1.000
    H92      H        0.14540    0.70480    0.55210    1.000
    C116     C        0.81560    0.79910    0.13850    1.000
    H93      H        0.85970    0.82590    0.15180    1.000
    C117     C        0.78670    0.82590    0.09628    1.000
    H94      H        0.81080    0.86940    0.08070    1.000
    C118     C        0.72150    0.78760    0.07695    1.000
    C119     C        0.69090    0.72180    0.09984    1.000
    H95      H        0.64770    0.69310    0.08700    1.000
    C120     C        0.72460    0.69920    0.14155    1.000
    H96      H        0.70370    0.65380    0.15680    1.000
    C121     C        0.67360    0.04760    0.05304    1.000
    H97      H        0.65960    0.08020    0.07880    1.000
    C122     C        0.67010    0.96700    0.05870    1.000
    H98      H        0.65470    0.94470    0.08790    1.000
    C123     C        0.68960    0.91820    0.02112    1.000
    C124     C        0.71350    0.95330    0.97978    1.000
    H99      H        0.72840    0.92170    0.95370    1.000
    C125     C        0.71550    0.03560    0.97686    1.000
    H100     H        0.73150    0.05930    0.94820    1.000
    Cd6      Cd       0.19351    0.28196    0.74342    1.000
    S11      S        0.10080    0.26535    0.97788    1.000
    S12      S        0.32340    0.18532    0.52320    1.000
    N26      N        0.16851    0.14600    0.75023    1.000
    N27      N        0.16403    0.28684    0.82395    1.000
    N28      N        0.83361    0.23604    0.99343    1.000
    N29      N        0.21496    0.26262    0.66199    1.000
    N30      N        0.30432    0.91713    0.51281    1.000
    C126     C        0.10360    0.11920    0.77100    1.000
    H101     H        0.06970    0.15650    0.78580    1.000
    C127     C        0.08220    0.03940    0.77233    1.000
    H102     H        0.03540    0.02240    0.78790    1.000
    C128     C        0.13190    0.98590    0.75009    1.000
    C129     C        0.20120    0.01250    0.72906    1.000
    H103     H        0.23650    0.97650    0.71430    1.000
    C130     C        0.21720    0.09250    0.73027    1.000
    H104     H        0.26500    0.11090    0.71640    1.000
    C131     C        0.19980    0.23500    0.85233    1.000
    H105     H        0.24090    0.20310    0.83960    1.000
    C132     C        0.18090    0.22510    0.89864    1.000
    H106     H        0.20750    0.18680    0.91730    1.000
    C133     C        0.12170    0.27260    0.91744    1.000
    C134     C        0.08440    0.32800    0.88902    1.000
    H107     H        0.04420    0.36170    0.90110    1.000
    C135     C        0.10770    0.33260    0.84249    1.000
    H108     H        0.08220    0.37030    0.82290    1.000
    C136     C        0.87080    0.20880    0.95510    1.000
    H109     H        0.84000    0.18230    0.93210    1.000
    C137     C        0.95080    0.21690    0.94714    1.000
    H110     H        0.97420    0.19550    0.91970    1.000
    C138     C        0.99680    0.25660    0.97957    1.000
    C139     C        0.95900    0.28690    0.01928    1.000
    H111     H        0.98830    0.31550    0.04220    1.000
    C140     C        0.87930    0.27490    0.02470    1.000
    H112     H        0.85460    0.29520    0.05210    1.000
    C141     C        0.18440    0.20090    0.63850    1.000
    H113     H        0.14030    0.17410    0.65180    1.000
    C142     C        0.21330    0.17410    0.59628    1.000
    H114     H        0.18920    0.13060    0.58070    1.000
    C143     C        0.27850    0.21240    0.57695    1.000
    C144     C        0.30910    0.27820    0.59984    1.000
    H115     H        0.35230    0.30690    0.58700    1.000
    C145     C        0.27540    0.30080    0.64155    1.000
    H116     H        0.29630    0.34620    0.65680    1.000
    C146     C        0.32640    0.95240    0.55304    1.000
    H117     H        0.34040    0.91980    0.57880    1.000
    C147     C        0.32990    0.03300    0.55870    1.000
    H118     H        0.34530    0.05530    0.58790    1.000
    C148     C        0.31040    0.08180    0.52112    1.000
    C149     C        0.28650    0.04670    0.47978    1.000
    H119     H        0.27160    0.07830    0.45370    1.000
    C150     C        0.28450    0.96440    0.47686    1.000
    H120     H        0.26850    0.94070    0.44820    1.000
    Cd7      Cd       0.21804    0.69351    0.99342    1.000
    S13      S        0.23465    0.60080    0.22788    1.000
    S14      S        0.31468    0.82340    0.77320    1.000
    N31      N        0.35400    0.66851    0.00023    1.000
    N32      N        0.21316    0.66403    0.07395    1.000
    N33      N        0.26396    0.33361    0.24343    1.000
    N34      N        0.23738    0.71496    0.91199    1.000
    N35      N        0.58287    0.80432    0.76281    1.000
    C151     C        0.38080    0.60360    0.02100    1.000
    H121     H        0.34350    0.56970    0.03580    1.000
    C152     C        0.46060    0.58220    0.02233    1.000
    H122     H        0.47760    0.53540    0.03790    1.000
    C153     C        0.51410    0.63190    0.00009    1.000
    C154     C        0.48750    0.70120    0.97906    1.000
    H123     H        0.52350    0.73650    0.96430    1.000
    C155     C        0.40750    0.71720    0.98027    1.000
    H124     H        0.38910    0.76500    0.96640    1.000
    C156     C        0.26500    0.69980    0.10233    1.000
    H125     H        0.29690    0.74090    0.08960    1.000
    C157     C        0.27490    0.68090    0.14864    1.000
    H126     H        0.31320    0.70750    0.16730    1.000
    C158     C        0.22740    0.62170    0.16744    1.000
    C159     C        0.17200    0.58440    0.13902    1.000
    H127     H        0.13830    0.54420    0.15110    1.000
    C160     C        0.16740    0.60770    0.09249    1.000
    H128     H        0.12970    0.58220    0.07290    1.000
    C161     C        0.29120    0.37080    0.20510    1.000
    H129     H        0.31770    0.34000    0.18210    1.000
    C162     C        0.28310    0.45080    0.19714    1.000
    H130     H        0.30450    0.47420    0.16970    1.000
    C163     C        0.24340    0.49680    0.22957    1.000
    C164     C        0.21310    0.45900    0.26928    1.000
    H131     H        0.18450    0.48830    0.29220    1.000
    C165     C        0.22510    0.37930    0.27470    1.000
    H132     H        0.20480    0.35460    0.30210    1.000
    C166     C        0.29910    0.68440    0.88850    1.000
    H133     H        0.32590    0.64030    0.90180    1.000
    C167     C        0.32590    0.71330    0.84628    1.000
    H134     H        0.36940    0.68920    0.83070    1.000
    C168     C        0.28760    0.77850    0.82695    1.000
    C169     C        0.22180    0.80910    0.84984    1.000
    H135     H        0.19310    0.85230    0.83700    1.000
    C170     C        0.19920    0.77540    0.89155    1.000
    H136     H        0.15380    0.79630    0.90680    1.000
    C171     C        0.54760    0.82640    0.80304    1.000
    H137     H        0.58020    0.84040    0.82880    1.000
    C172     C        0.46700    0.82990    0.80870    1.000
    H138     H        0.44470    0.84530    0.83790    1.000
    C173     C        0.41820    0.81040    0.77112    1.000
    C174     C        0.45330    0.78650    0.72978    1.000
    H139     H        0.42170    0.77160    0.70370    1.000
    C175     C        0.53560    0.78450    0.72686    1.000
    H140     H        0.55930    0.76850    0.69820    1.000
    Cd8      Cd       0.78196    0.30649    0.49342    1.000
    S15      S        0.76535    0.39920    0.72788    1.000
    S16      S        0.68532    0.17660    0.27320    1.000
    N36      N        0.64600    0.33149    0.50023    1.000
    N37      N        0.78684    0.33597    0.57395    1.000
    N38      N        0.73604    0.66639    0.74343    1.000
    N39      N        0.76262    0.28504    0.41199    1.000
    N40      N        0.41713    0.19568    0.26281    1.000
    C176     C        0.61920    0.39640    0.52100    1.000
    H141     H        0.65650    0.43030    0.53580    1.000
    C177     C        0.53940    0.41780    0.52233    1.000
    H142     H        0.52240    0.46460    0.53790    1.000
    C178     C        0.48590    0.36810    0.50009    1.000
    C179     C        0.51250    0.29880    0.47906    1.000
    H143     H        0.47650    0.26350    0.46430    1.000
    C180     C        0.59250    0.28280    0.48027    1.000
    H144     H        0.61090    0.23500    0.46640    1.000
    C181     C        0.73500    0.30020    0.60233    1.000
    H145     H        0.70310    0.25910    0.58960    1.000
    C182     C        0.72510    0.31910    0.64864    1.000
    H146     H        0.68680    0.29250    0.66730    1.000
    C183     C        0.77260    0.37830    0.66744    1.000
    C184     C        0.82800    0.41560    0.63902    1.000
    H147     H        0.86170    0.45580    0.65110    1.000
    C185     C        0.83260    0.39230    0.59249    1.000
    H148     H        0.87030    0.41780    0.57290    1.000
    C186     C        0.70880    0.62920    0.70510    1.000
    H149     H        0.68230    0.66000    0.68210    1.000
    C187     C        0.71690    0.54920    0.69714    1.000
    H150     H        0.69550    0.52580    0.66970    1.000
    C188     C        0.75660    0.50320    0.72957    1.000
    C189     C        0.78690    0.54100    0.76928    1.000
    H151     H        0.81550    0.51170    0.79220    1.000
    C190     C        0.77490    0.62070    0.77470    1.000
    H152     H        0.79520    0.64540    0.80210    1.000
    C191     C        0.70090    0.31560    0.38850    1.000
    H153     H        0.67410    0.35970    0.40180    1.000
    C192     C        0.67410    0.28670    0.34628    1.000
    H154     H        0.63060    0.31080    0.33070    1.000
    C193     C        0.71240    0.22150    0.32695    1.000
    C194     C        0.77820    0.19090    0.34984    1.000
    H155     H        0.80690    0.14770    0.33700    1.000
    C195     C        0.80080    0.22460    0.39155    1.000
    H156     H        0.84620    0.20370    0.40680    1.000
    C196     C        0.45240    0.17360    0.30304    1.000
    H157     H        0.41980    0.15960    0.32880    1.000
    C197     C        0.53300    0.17010    0.30870    1.000
    H158     H        0.55530    0.15470    0.33790    1.000
    C198     C        0.58180    0.18960    0.27112    1.000
    C199     C        0.54670    0.21350    0.22978    1.000
    H159     H        0.57830    0.22840    0.20370    1.000
    C200     C        0.46440    0.21550    0.22686    1.000
    H160     H        0.44070    0.23150    0.19820    1.000
    S17      S        0.61752    0.61752    0.00000    1.000
    S18      S        0.38248    0.38248    0.50000    1.000
    S19      S        0.88248    0.11752    0.25000    1.000
    S20      S        0.11752    0.88248    0.75000    1.000
