# CIF file generated by openbabel 3.1.0, see https://openbabel.org
data_I
_chemical_name_common 'image0'
_cell_length_a 35.0571
_cell_length_b 14.6495
_cell_length_c 31.1547
_cell_angle_alpha 90
_cell_angle_beta 100.846
_cell_angle_gamma 90
_space_group_name_H-M_alt 'P 1'
_space_group_name_Hall 'P 1'
loop_
    _symmetry_equiv_pos_as_xyz
    x,y,z
loop_
    _atom_site_label
    _atom_site_type_symbol
    _atom_site_fract_x
    _atom_site_fract_y
    _atom_site_fract_z
    _atom_site_occupancy
    I1       I        0.73580    0.76039    0.79610    1.000
    I2       I        0.63079    0.83840    0.69850    1.000
    I3       I        0.35413    0.89270    0.50559    1.000
    I4       I        0.61690    0.74648    0.56308    1.000
    I5       I        0.52299    0.66292    0.63504    1.000
    I6       I        0.39384    0.75190    0.39425    1.000
    Zn1      Zn       0.67371    0.85145    0.77399    1.000
    Zn2      Zn       0.58179    0.62886    0.60006    1.000
    Zn3      Zn       0.37671    0.89609    0.43250    1.000
    N1       N        0.68380    0.99020    0.78380    1.000
    N2       N        0.73460    0.31250    0.81280    1.000
    N3       N        0.68060    0.32290    0.75440    1.000
    N4       N        0.72110    0.45160    0.77400    1.000
    N5       N        0.61990    0.56000    0.64760    1.000
    N6       N        0.56930    0.52110    0.55610    1.000
    N7       N        0.57530    0.28640    0.44170    1.000
    N8       N        0.52350    0.23310    0.47460    1.000
    N9       N        0.54050    0.15230    0.41490    1.000
    N10      N        0.63980    0.17630    0.31930    1.000
    N11      N        0.42310    0.98490    0.44000    1.000
    N12      N        0.83440    0.53620    0.88950    1.000
    C1       C        0.71590    0.02500    0.80710    1.000
    H1       H        0.73450    0.98520    0.82200    1.000
    C2       C        0.72330    0.11880    0.81050    1.000
    H2       H        0.74590    0.14060    0.82800    1.000
    C3       C        0.69670    0.17800    0.78770    1.000
    C4       C        0.66230    0.14200    0.76380    1.000
    H3       H        0.64320    0.18030    0.74880    1.000
    C5       C        0.65730    0.04880    0.76270    1.000
    H4       H        0.63430    0.02520    0.74670    1.000
    C6       C        0.70440    0.27680    0.78570    1.000
    C7       C        0.74140    0.40090    0.80490    1.000
    C8       C        0.69030    0.40980    0.75030    1.000
    C9       C        0.66620    0.46350    0.71490    1.000
    C10      C        0.67590    0.55130    0.70420    1.000
    H5       H        0.69810    0.57930    0.71970    1.000
    C11      C        0.65230    0.59660    0.67040    1.000
    H6       H        0.65920    0.65510    0.66320    1.000
    C12      C        0.61000    0.47610    0.65860    1.000
    H7       H        0.58700    0.45090    0.64350    1.000
    C13      C        0.63250    0.42460    0.69150    1.000
    H8       H        0.62520    0.36570    0.69760    1.000
    C14      C        0.53650    0.47190    0.55140    1.000
    H9       H        0.51750    0.48930    0.56690    1.000
    C15      C        0.52990    0.39610    0.52430    1.000
    H10      H        0.50700    0.36300    0.52200    1.000
    C16      C        0.55800    0.37060    0.50070    1.000
    C17      C        0.59140    0.42100    0.50540    1.000
    H11      H        0.61070    0.40550    0.49000    1.000
    C18      C        0.59620    0.49640    0.53370    1.000
    H12      H        0.61900    0.53020    0.53680    1.000
    C19      C        0.55200    0.29170    0.47040    1.000
    C20      C        0.51840    0.16550    0.44520    1.000
    C21      C        0.56790    0.21360    0.41410    1.000
    C22      C        0.59270    0.20310    0.38110    1.000
    C23      C        0.62890    0.24250    0.38610    1.000
    H13      H        0.63770    0.28050    0.40980    1.000
    C24      C        0.65230    0.22530    0.35540    1.000
    H14      H        0.67740    0.24870    0.36020    1.000
    C25      C        0.60410    0.14250    0.31380    1.000
    H15      H        0.59480    0.10940    0.28850    1.000
    C26      C        0.58000    0.15420    0.34360    1.000
    H16      H        0.55520    0.12890    0.33840    1.000
    C27      C        0.48600    0.10280    0.44450    1.000
    C28      C        0.46730    0.09270    0.47850    1.000
    H17      H        0.47530    0.12650    0.50380    1.000
    C29      C        0.43700    0.03340    0.47590    1.000
    H18      H        0.42540    0.02650    0.50030    1.000
    C30      C        0.44070    0.99750    0.40590    1.000
    H19      H        0.43140    0.96570    0.38020    1.000
    C31      C        0.47140    0.05440    0.40690    1.000
    H20      H        0.48260    0.06080    0.38230    1.000
    C32      C        0.82140    0.45340    0.90080    1.000
    H21      H        0.83270    0.42800    0.92760    1.000
    C33      C        0.79220    0.40610    0.87390    1.000
    H22      H        0.78470    0.34860    0.88180    1.000
    C34      C        0.77430    0.44650    0.83480    1.000
    C35      C        0.78720    0.53040    0.82380    1.000
    H23      H        0.77550    0.55860    0.79780    1.000
    C36      C        0.81770    0.57310    0.85160    1.000
    H24      H        0.82660    0.62910    0.84350    1.000
    I7       I        0.35040    0.87100    0.49850    1.000
    I8       I        0.63300    0.72740    0.55850    1.000
    I9       I        0.53070    0.67540    0.62180    1.000
    I10      I        0.40150    0.77310    0.38900    1.000
    I11      I        0.23580    0.26039    0.79610    1.000
    I12      I        0.13079    0.33840    0.69850    1.000
    I13      I        0.85413    0.39270    0.50559    1.000
    I14      I        0.11690    0.24648    0.56308    1.000
    I15      I        0.02299    0.16292    0.63504    1.000
    I16      I        0.89384    0.25190    0.39425    1.000
    Zn4      Zn       0.17371    0.35145    0.77399    1.000
    Zn5      Zn       0.08179    0.12886    0.60006    1.000
    Zn6      Zn       0.87671    0.39609    0.43250    1.000
    N13      N        0.18380    0.49020    0.78380    1.000
    N14      N        0.23460    0.81250    0.81280    1.000
    N15      N        0.18060    0.82290    0.75440    1.000
    N16      N        0.22110    0.95160    0.77400    1.000
    N17      N        0.11990    0.06000    0.64760    1.000
    N18      N        0.06930    0.02110    0.55610    1.000
    N19      N        0.07530    0.78640    0.44170    1.000
    N20      N        0.02350    0.73310    0.47460    1.000
    N21      N        0.04050    0.65230    0.41490    1.000
    N22      N        0.13980    0.67630    0.31930    1.000
    N23      N        0.92310    0.48490    0.44000    1.000
    N24      N        0.33440    0.03620    0.88950    1.000
    C37      C        0.21590    0.52500    0.80710    1.000
    H25      H        0.23450    0.48520    0.82200    1.000
    C38      C        0.22330    0.61880    0.81050    1.000
    H26      H        0.24590    0.64060    0.82800    1.000
    C39      C        0.19670    0.67800    0.78770    1.000
    C40      C        0.16230    0.64200    0.76380    1.000
    H27      H        0.14320    0.68030    0.74880    1.000
    C41      C        0.15730    0.54880    0.76270    1.000
    H28      H        0.13430    0.52520    0.74670    1.000
    C42      C        0.20440    0.77680    0.78570    1.000
    C43      C        0.24140    0.90090    0.80490    1.000
    C44      C        0.19030    0.90980    0.75030    1.000
    C45      C        0.16620    0.96350    0.71490    1.000
    C46      C        0.17590    0.05130    0.70420    1.000
    H29      H        0.19810    0.07930    0.71970    1.000
    C47      C        0.15230    0.09660    0.67040    1.000
    H30      H        0.15920    0.15510    0.66320    1.000
    C48      C        0.11000    0.97610    0.65860    1.000
    H31      H        0.08700    0.95090    0.64350    1.000
    C49      C        0.13250    0.92460    0.69150    1.000
    H32      H        0.12520    0.86570    0.69760    1.000
    C50      C        0.03650    0.97190    0.55140    1.000
    H33      H        0.01750    0.98930    0.56690    1.000
    C51      C        0.02990    0.89610    0.52430    1.000
    H34      H        0.00700    0.86300    0.52200    1.000
    C52      C        0.05800    0.87060    0.50070    1.000
    C53      C        0.09140    0.92100    0.50540    1.000
    H35      H        0.11070    0.90550    0.49000    1.000
    C54      C        0.09620    0.99640    0.53370    1.000
    H36      H        0.11900    0.03020    0.53680    1.000
    C55      C        0.05200    0.79170    0.47040    1.000
    C56      C        0.01840    0.66550    0.44520    1.000
    C57      C        0.06790    0.71360    0.41410    1.000
    C58      C        0.09270    0.70310    0.38110    1.000
    C59      C        0.12890    0.74250    0.38610    1.000
    H37      H        0.13770    0.78050    0.40980    1.000
    C60      C        0.15230    0.72530    0.35540    1.000
    H38      H        0.17740    0.74870    0.36020    1.000
    C61      C        0.10410    0.64250    0.31380    1.000
    H39      H        0.09480    0.60940    0.28850    1.000
    C62      C        0.08000    0.65420    0.34360    1.000
    H40      H        0.05520    0.62890    0.33840    1.000
    C63      C        0.98600    0.60280    0.44450    1.000
    C64      C        0.96730    0.59270    0.47850    1.000
    H41      H        0.97530    0.62650    0.50380    1.000
    C65      C        0.93700    0.53340    0.47590    1.000
    H42      H        0.92540    0.52650    0.50030    1.000
    C66      C        0.94070    0.49750    0.40590    1.000
    H43      H        0.93140    0.46570    0.38020    1.000
    C67      C        0.97140    0.55440    0.40690    1.000
    H44      H        0.98260    0.56080    0.38230    1.000
    C68      C        0.32140    0.95340    0.90080    1.000
    H45      H        0.33270    0.92800    0.92760    1.000
    C69      C        0.29220    0.90610    0.87390    1.000
    H46      H        0.28470    0.84860    0.88180    1.000
    C70      C        0.27430    0.94650    0.83480    1.000
    C71      C        0.28720    0.03040    0.82380    1.000
    H47      H        0.27550    0.05860    0.79780    1.000
    C72      C        0.31770    0.07310    0.85160    1.000
    H48      H        0.32660    0.12910    0.84350    1.000
    I17      I        0.85040    0.37100    0.49850    1.000
    I18      I        0.13300    0.22740    0.55850    1.000
    I19      I        0.03070    0.17540    0.62180    1.000
    I20      I        0.90150    0.27310    0.38900    1.000
    I21      I        0.73580    0.23961    0.29610    1.000
    I22      I        0.63079    0.16160    0.19850    1.000
    I23      I        0.35413    0.10730    0.00559    1.000
    I24      I        0.61690    0.25352    0.06308    1.000
    I25      I        0.52299    0.33708    0.13504    1.000
    I26      I        0.39384    0.24810    0.89425    1.000
    Zn7      Zn       0.67371    0.14855    0.27399    1.000
    Zn8      Zn       0.58179    0.37114    0.10006    1.000
    Zn9      Zn       0.37671    0.10391    0.93250    1.000
    N25      N        0.68380    0.00980    0.28380    1.000
    N26      N        0.73460    0.68750    0.31280    1.000
    N27      N        0.68060    0.67710    0.25440    1.000
    N28      N        0.72110    0.54840    0.27400    1.000
    N29      N        0.61990    0.44000    0.14760    1.000
    N30      N        0.56930    0.47890    0.05610    1.000
    N31      N        0.57530    0.71360    0.94170    1.000
    N32      N        0.52350    0.76690    0.97460    1.000
    N33      N        0.54050    0.84770    0.91490    1.000
    N34      N        0.63980    0.82370    0.81930    1.000
    N35      N        0.42310    0.01510    0.94000    1.000
    N36      N        0.83440    0.46380    0.38950    1.000
    C73      C        0.71590    0.97500    0.30710    1.000
    H49      H        0.73450    0.01480    0.32200    1.000
    C74      C        0.72330    0.88120    0.31050    1.000
    H50      H        0.74590    0.85940    0.32800    1.000
    C75      C        0.69670    0.82200    0.28770    1.000
    C76      C        0.66230    0.85800    0.26380    1.000
    H51      H        0.64320    0.81970    0.24880    1.000
    C77      C        0.65730    0.95120    0.26270    1.000
    H52      H        0.63430    0.97480    0.24670    1.000
    C78      C        0.70440    0.72320    0.28570    1.000
    C79      C        0.74140    0.59910    0.30490    1.000
    C80      C        0.69030    0.59020    0.25030    1.000
    C81      C        0.66620    0.53650    0.21490    1.000
    C82      C        0.67590    0.44870    0.20420    1.000
    H53      H        0.69810    0.42070    0.21970    1.000
    C83      C        0.65230    0.40340    0.17040    1.000
    H54      H        0.65920    0.34490    0.16320    1.000
    C84      C        0.61000    0.52390    0.15860    1.000
    H55      H        0.58700    0.54910    0.14350    1.000
    C85      C        0.63250    0.57540    0.19150    1.000
    H56      H        0.62520    0.63430    0.19760    1.000
    C86      C        0.53650    0.52810    0.05140    1.000
    H57      H        0.51750    0.51070    0.06690    1.000
    C87      C        0.52990    0.60390    0.02430    1.000
    H58      H        0.50700    0.63700    0.02200    1.000
    C88      C        0.55800    0.62940    0.00070    1.000
    C89      C        0.59140    0.57900    0.00540    1.000
    H59      H        0.61070    0.59450    0.99000    1.000
    C90      C        0.59620    0.50360    0.03370    1.000
    H60      H        0.61900    0.46980    0.03680    1.000
    C91      C        0.55200    0.70830    0.97040    1.000
    C92      C        0.51840    0.83450    0.94520    1.000
    C93      C        0.56790    0.78640    0.91410    1.000
    C94      C        0.59270    0.79690    0.88110    1.000
    C95      C        0.62890    0.75750    0.88610    1.000
    H61      H        0.63770    0.71950    0.90980    1.000
    C96      C        0.65230    0.77470    0.85540    1.000
    H62      H        0.67740    0.75130    0.86020    1.000
    C97      C        0.60410    0.85750    0.81380    1.000
    H63      H        0.59480    0.89060    0.78850    1.000
    C98      C        0.58000    0.84580    0.84360    1.000
    H64      H        0.55520    0.87110    0.83840    1.000
    C99      C        0.48600    0.89720    0.94450    1.000
    C100     C        0.46730    0.90730    0.97850    1.000
    H65      H        0.47530    0.87350    0.00380    1.000
    C101     C        0.43700    0.96660    0.97590    1.000
    H66      H        0.42540    0.97350    0.00030    1.000
    C102     C        0.44070    0.00250    0.90590    1.000
    H67      H        0.43140    0.03430    0.88020    1.000
    C103     C        0.47140    0.94560    0.90690    1.000
    H68      H        0.48260    0.93920    0.88230    1.000
    C104     C        0.82140    0.54660    0.40080    1.000
    H69      H        0.83270    0.57200    0.42760    1.000
    C105     C        0.79220    0.59390    0.37390    1.000
    H70      H        0.78470    0.65140    0.38180    1.000
    C106     C        0.77430    0.55350    0.33480    1.000
    C107     C        0.78720    0.46960    0.32380    1.000
    H71      H        0.77550    0.44140    0.29780    1.000
    C108     C        0.81770    0.42690    0.35160    1.000
    H72      H        0.82660    0.37090    0.34350    1.000
    I27      I        0.35040    0.12900    0.99850    1.000
    I28      I        0.63300    0.27260    0.05850    1.000
    I29      I        0.53070    0.32460    0.12180    1.000
    I30      I        0.40150    0.22690    0.88900    1.000
    I31      I        0.23580    0.73961    0.29610    1.000
    I32      I        0.13079    0.66160    0.19850    1.000
    I33      I        0.85413    0.60730    0.00559    1.000
    I34      I        0.11690    0.75352    0.06308    1.000
    I35      I        0.02299    0.83708    0.13504    1.000
    I36      I        0.89384    0.74810    0.89425    1.000
    Zn10     Zn       0.17371    0.64855    0.27399    1.000
    Zn11     Zn       0.08179    0.87114    0.10006    1.000
    Zn12     Zn       0.87671    0.60391    0.93250    1.000
    N37      N        0.18380    0.50980    0.28380    1.000
    N38      N        0.23460    0.18750    0.31280    1.000
    N39      N        0.18060    0.17710    0.25440    1.000
    N40      N        0.22110    0.04840    0.27400    1.000
    N41      N        0.11990    0.94000    0.14760    1.000
    N42      N        0.06930    0.97890    0.05610    1.000
    N43      N        0.07530    0.21360    0.94170    1.000
    N44      N        0.02350    0.26690    0.97460    1.000
    N45      N        0.04050    0.34770    0.91490    1.000
    N46      N        0.13980    0.32370    0.81930    1.000
    N47      N        0.92310    0.51510    0.94000    1.000
    N48      N        0.33440    0.96380    0.38950    1.000
    C109     C        0.21590    0.47500    0.30710    1.000
    H73      H        0.23450    0.51480    0.32200    1.000
    C110     C        0.22330    0.38120    0.31050    1.000
    H74      H        0.24590    0.35940    0.32800    1.000
    C111     C        0.19670    0.32200    0.28770    1.000
    C112     C        0.16230    0.35800    0.26380    1.000
    H75      H        0.14320    0.31970    0.24880    1.000
    C113     C        0.15730    0.45120    0.26270    1.000
    H76      H        0.13430    0.47480    0.24670    1.000
    C114     C        0.20440    0.22320    0.28570    1.000
    C115     C        0.24140    0.09910    0.30490    1.000
    C116     C        0.19030    0.09020    0.25030    1.000
    C117     C        0.16620    0.03650    0.21490    1.000
    C118     C        0.17590    0.94870    0.20420    1.000
    H77      H        0.19810    0.92070    0.21970    1.000
    C119     C        0.15230    0.90340    0.17040    1.000
    H78      H        0.15920    0.84490    0.16320    1.000
    C120     C        0.11000    0.02390    0.15860    1.000
    H79      H        0.08700    0.04910    0.14350    1.000
    C121     C        0.13250    0.07540    0.19150    1.000
    H80      H        0.12520    0.13430    0.19760    1.000
    C122     C        0.03650    0.02810    0.05140    1.000
    H81      H        0.01750    0.01070    0.06690    1.000
    C123     C        0.02990    0.10390    0.02430    1.000
    H82      H        0.00700    0.13700    0.02200    1.000
    C124     C        0.05800    0.12940    0.00070    1.000
    C125     C        0.09140    0.07900    0.00540    1.000
    H83      H        0.11070    0.09450    0.99000    1.000
    C126     C        0.09620    0.00360    0.03370    1.000
    H84      H        0.11900    0.96980    0.03680    1.000
    C127     C        0.05200    0.20830    0.97040    1.000
    C128     C        0.01840    0.33450    0.94520    1.000
    C129     C        0.06790    0.28640    0.91410    1.000
    C130     C        0.09270    0.29690    0.88110    1.000
    C131     C        0.12890    0.25750    0.88610    1.000
    H85      H        0.13770    0.21950    0.90980    1.000
    C132     C        0.15230    0.27470    0.85540    1.000
    H86      H        0.17740    0.25130    0.86020    1.000
    C133     C        0.10410    0.35750    0.81380    1.000
    H87      H        0.09480    0.39060    0.78850    1.000
    C134     C        0.08000    0.34580    0.84360    1.000
    H88      H        0.05520    0.37110    0.83840    1.000
    C135     C        0.98600    0.39720    0.94450    1.000
    C136     C        0.96730    0.40730    0.97850    1.000
    H89      H        0.97530    0.37350    0.00380    1.000
    C137     C        0.93700    0.46660    0.97590    1.000
    H90      H        0.92540    0.47350    0.00030    1.000
    C138     C        0.94070    0.50250    0.90590    1.000
    H91      H        0.93140    0.53430    0.88020    1.000
    C139     C        0.97140    0.44560    0.90690    1.000
    H92      H        0.98260    0.43920    0.88230    1.000
    C140     C        0.32140    0.04660    0.40080    1.000
    H93      H        0.33270    0.07200    0.42760    1.000
    C141     C        0.29220    0.09390    0.37390    1.000
    H94      H        0.28470    0.15140    0.38180    1.000
    C142     C        0.27430    0.05350    0.33480    1.000
    C143     C        0.28720    0.96960    0.32380    1.000
    H95      H        0.27550    0.94140    0.29780    1.000
    C144     C        0.31770    0.92690    0.35160    1.000
    H96      H        0.32660    0.87090    0.34350    1.000
    I37      I        0.85040    0.62900    0.99850    1.000
    I38      I        0.13300    0.77260    0.05850    1.000
    I39      I        0.03070    0.82460    0.12180    1.000
    I40      I        0.90150    0.72690    0.88900    1.000
    I41      I        0.26420    0.76039    0.70390    1.000
    I42      I        0.36921    0.83840    0.80150    1.000
    I43      I        0.64587    0.89270    0.99441    1.000
    I44      I        0.38310    0.74648    0.93692    1.000
    I45      I        0.47701    0.66292    0.86496    1.000
    I46      I        0.60616    0.75190    0.10575    1.000
    Zn13     Zn       0.32629    0.85145    0.72601    1.000
    Zn14     Zn       0.41821    0.62886    0.89994    1.000
    Zn15     Zn       0.62329    0.89609    0.06750    1.000
    N49      N        0.31620    0.99020    0.71620    1.000
    N50      N        0.26540    0.31250    0.68720    1.000
    N51      N        0.31940    0.32290    0.74560    1.000
    N52      N        0.27890    0.45160    0.72600    1.000
    N53      N        0.38010    0.56000    0.85240    1.000
    N54      N        0.43070    0.52110    0.94390    1.000
    N55      N        0.42470    0.28640    0.05830    1.000
    N56      N        0.47650    0.23310    0.02540    1.000
    N57      N        0.45950    0.15230    0.08510    1.000
    N58      N        0.36020    0.17630    0.18070    1.000
    N59      N        0.57690    0.98490    0.06000    1.000
    N60      N        0.16560    0.53620    0.61050    1.000
    C145     C        0.28410    0.02500    0.69290    1.000
    H97      H        0.26550    0.98520    0.67800    1.000
    C146     C        0.27670    0.11880    0.68950    1.000
    H98      H        0.25410    0.14060    0.67200    1.000
    C147     C        0.30330    0.17800    0.71230    1.000
    C148     C        0.33770    0.14200    0.73620    1.000
    H99      H        0.35680    0.18030    0.75120    1.000
    C149     C        0.34270    0.04880    0.73730    1.000
    H100     H        0.36570    0.02520    0.75330    1.000
    C150     C        0.29560    0.27680    0.71430    1.000
    C151     C        0.25860    0.40090    0.69510    1.000
    C152     C        0.30970    0.40980    0.74970    1.000
    C153     C        0.33380    0.46350    0.78510    1.000
    C154     C        0.32410    0.55130    0.79580    1.000
    H101     H        0.30190    0.57930    0.78030    1.000
    C155     C        0.34770    0.59660    0.82960    1.000
    H102     H        0.34080    0.65510    0.83680    1.000
    C156     C        0.39000    0.47610    0.84140    1.000
    H103     H        0.41300    0.45090    0.85650    1.000
    C157     C        0.36750    0.42460    0.80850    1.000
    H104     H        0.37480    0.36570    0.80240    1.000
    C158     C        0.46350    0.47190    0.94860    1.000
    H105     H        0.48250    0.48930    0.93310    1.000
    C159     C        0.47010    0.39610    0.97570    1.000
    H106     H        0.49300    0.36300    0.97800    1.000
    C160     C        0.44200    0.37060    0.99930    1.000
    C161     C        0.40860    0.42100    0.99460    1.000
    H107     H        0.38930    0.40550    0.01000    1.000
    C162     C        0.40380    0.49640    0.96630    1.000
    H108     H        0.38100    0.53020    0.96320    1.000
    C163     C        0.44800    0.29170    0.02960    1.000
    C164     C        0.48160    0.16550    0.05480    1.000
    C165     C        0.43210    0.21360    0.08590    1.000
    C166     C        0.40730    0.20310    0.11890    1.000
    C167     C        0.37110    0.24250    0.11390    1.000
    H109     H        0.36230    0.28050    0.09020    1.000
    C168     C        0.34770    0.22530    0.14460    1.000
    H110     H        0.32260    0.24870    0.13980    1.000
    C169     C        0.39590    0.14250    0.18620    1.000
    H111     H        0.40520    0.10940    0.21150    1.000
    C170     C        0.42000    0.15420    0.15640    1.000
    H112     H        0.44480    0.12890    0.16160    1.000
    C171     C        0.51400    0.10280    0.05550    1.000
    C172     C        0.53270    0.09270    0.02150    1.000
    H113     H        0.52470    0.12650    0.99620    1.000
    C173     C        0.56300    0.03340    0.02410    1.000
    H114     H        0.57460    0.02650    0.99970    1.000
    C174     C        0.55930    0.99750    0.09410    1.000
    H115     H        0.56860    0.96570    0.11980    1.000
    C175     C        0.52860    0.05440    0.09310    1.000
    H116     H        0.51740    0.06080    0.11770    1.000
    C176     C        0.17860    0.45340    0.59920    1.000
    H117     H        0.16730    0.42800    0.57240    1.000
    C177     C        0.20780    0.40610    0.62610    1.000
    H118     H        0.21530    0.34860    0.61820    1.000
    C178     C        0.22570    0.44650    0.66520    1.000
    C179     C        0.21280    0.53040    0.67620    1.000
    H119     H        0.22450    0.55860    0.70220    1.000
    C180     C        0.18230    0.57310    0.64840    1.000
    H120     H        0.17340    0.62910    0.65650    1.000
    I47      I        0.64960    0.87100    0.00150    1.000
    I48      I        0.36700    0.72740    0.94150    1.000
    I49      I        0.46930    0.67540    0.87820    1.000
    I50      I        0.59850    0.77310    0.11100    1.000
    I51      I        0.76420    0.26039    0.70390    1.000
    I52      I        0.86921    0.33840    0.80150    1.000
    I53      I        0.14587    0.39270    0.99441    1.000
    I54      I        0.88310    0.24648    0.93692    1.000
    I55      I        0.97701    0.16292    0.86496    1.000
    I56      I        0.10616    0.25190    0.10575    1.000
    Zn16     Zn       0.82629    0.35145    0.72601    1.000
    Zn17     Zn       0.91821    0.12886    0.89994    1.000
    Zn18     Zn       0.12329    0.39609    0.06750    1.000
    N61      N        0.81620    0.49020    0.71620    1.000
    N62      N        0.76540    0.81250    0.68720    1.000
    N63      N        0.81940    0.82290    0.74560    1.000
    N64      N        0.77890    0.95160    0.72600    1.000
    N65      N        0.88010    0.06000    0.85240    1.000
    N66      N        0.93070    0.02110    0.94390    1.000
    N67      N        0.92470    0.78640    0.05830    1.000
    N68      N        0.97650    0.73310    0.02540    1.000
    N69      N        0.95950    0.65230    0.08510    1.000
    N70      N        0.86020    0.67630    0.18070    1.000
    N71      N        0.07690    0.48490    0.06000    1.000
    N72      N        0.66560    0.03620    0.61050    1.000
    C181     C        0.78410    0.52500    0.69290    1.000
    H121     H        0.76550    0.48520    0.67800    1.000
    C182     C        0.77670    0.61880    0.68950    1.000
    H122     H        0.75410    0.64060    0.67200    1.000
    C183     C        0.80330    0.67800    0.71230    1.000
    C184     C        0.83770    0.64200    0.73620    1.000
    H123     H        0.85680    0.68030    0.75120    1.000
    C185     C        0.84270    0.54880    0.73730    1.000
    H124     H        0.86570    0.52520    0.75330    1.000
    C186     C        0.79560    0.77680    0.71430    1.000
    C187     C        0.75860    0.90090    0.69510    1.000
    C188     C        0.80970    0.90980    0.74970    1.000
    C189     C        0.83380    0.96350    0.78510    1.000
    C190     C        0.82410    0.05130    0.79580    1.000
    H125     H        0.80190    0.07930    0.78030    1.000
    C191     C        0.84770    0.09660    0.82960    1.000
    H126     H        0.84080    0.15510    0.83680    1.000
    C192     C        0.89000    0.97610    0.84140    1.000
    H127     H        0.91300    0.95090    0.85650    1.000
    C193     C        0.86750    0.92460    0.80850    1.000
    H128     H        0.87480    0.86570    0.80240    1.000
    C194     C        0.96350    0.97190    0.94860    1.000
    H129     H        0.98250    0.98930    0.93310    1.000
    C195     C        0.97010    0.89610    0.97570    1.000
    H130     H        0.99300    0.86300    0.97800    1.000
    C196     C        0.94200    0.87060    0.99930    1.000
    C197     C        0.90860    0.92100    0.99460    1.000
    H131     H        0.88930    0.90550    0.01000    1.000
    C198     C        0.90380    0.99640    0.96630    1.000
    H132     H        0.88100    0.03020    0.96320    1.000
    C199     C        0.94800    0.79170    0.02960    1.000
    C200     C        0.98160    0.66550    0.05480    1.000
    C201     C        0.93210    0.71360    0.08590    1.000
    C202     C        0.90730    0.70310    0.11890    1.000
    C203     C        0.87110    0.74250    0.11390    1.000
    H133     H        0.86230    0.78050    0.09020    1.000
    C204     C        0.84770    0.72530    0.14460    1.000
    H134     H        0.82260    0.74870    0.13980    1.000
    C205     C        0.89590    0.64250    0.18620    1.000
    H135     H        0.90520    0.60940    0.21150    1.000
    C206     C        0.92000    0.65420    0.15640    1.000
    H136     H        0.94480    0.62890    0.16160    1.000
    C207     C        0.01400    0.60280    0.05550    1.000
    C208     C        0.03270    0.59270    0.02150    1.000
    H137     H        0.02470    0.62650    0.99620    1.000
    C209     C        0.06300    0.53340    0.02410    1.000
    H138     H        0.07460    0.52650    0.99970    1.000
    C210     C        0.05930    0.49750    0.09410    1.000
    H139     H        0.06860    0.46570    0.11980    1.000
    C211     C        0.02860    0.55440    0.09310    1.000
    H140     H        0.01740    0.56080    0.11770    1.000
    C212     C        0.67860    0.95340    0.59920    1.000
    H141     H        0.66730    0.92800    0.57240    1.000
    C213     C        0.70780    0.90610    0.62610    1.000
    H142     H        0.71530    0.84860    0.61820    1.000
    C214     C        0.72570    0.94650    0.66520    1.000
    C215     C        0.71280    0.03040    0.67620    1.000
    H143     H        0.72450    0.05860    0.70220    1.000
    C216     C        0.68230    0.07310    0.64840    1.000
    H144     H        0.67340    0.12910    0.65650    1.000
    I57      I        0.14960    0.37100    0.00150    1.000
    I58      I        0.86700    0.22740    0.94150    1.000
    I59      I        0.96930    0.17540    0.87820    1.000
    I60      I        0.09850    0.27310    0.11100    1.000
    I61      I        0.26420    0.23961    0.20390    1.000
    I62      I        0.36921    0.16160    0.30150    1.000
    I63      I        0.64587    0.10730    0.49441    1.000
    I64      I        0.38310    0.25352    0.43692    1.000
    I65      I        0.47701    0.33708    0.36496    1.000
    I66      I        0.60616    0.24810    0.60575    1.000
    Zn19     Zn       0.32629    0.14855    0.22601    1.000
    Zn20     Zn       0.41821    0.37114    0.39994    1.000
    Zn21     Zn       0.62329    0.10391    0.56750    1.000
    N73      N        0.31620    0.00980    0.21620    1.000
    N74      N        0.26540    0.68750    0.18720    1.000
    N75      N        0.31940    0.67710    0.24560    1.000
    N76      N        0.27890    0.54840    0.22600    1.000
    N77      N        0.38010    0.44000    0.35240    1.000
    N78      N        0.43070    0.47890    0.44390    1.000
    N79      N        0.42470    0.71360    0.55830    1.000
    N80      N        0.47650    0.76690    0.52540    1.000
    N81      N        0.45950    0.84770    0.58510    1.000
    N82      N        0.36020    0.82370    0.68070    1.000
    N83      N        0.57690    0.01510    0.56000    1.000
    N84      N        0.16560    0.46380    0.11050    1.000
    C217     C        0.28410    0.97500    0.19290    1.000
    H145     H        0.26550    0.01480    0.17800    1.000
    C218     C        0.27670    0.88120    0.18950    1.000
    H146     H        0.25410    0.85940    0.17200    1.000
    C219     C        0.30330    0.82200    0.21230    1.000
    C220     C        0.33770    0.85800    0.23620    1.000
    H147     H        0.35680    0.81970    0.25120    1.000
    C221     C        0.34270    0.95120    0.23730    1.000
    H148     H        0.36570    0.97480    0.25330    1.000
    C222     C        0.29560    0.72320    0.21430    1.000
    C223     C        0.25860    0.59910    0.19510    1.000
    C224     C        0.30970    0.59020    0.24970    1.000
    C225     C        0.33380    0.53650    0.28510    1.000
    C226     C        0.32410    0.44870    0.29580    1.000
    H149     H        0.30190    0.42070    0.28030    1.000
    C227     C        0.34770    0.40340    0.32960    1.000
    H150     H        0.34080    0.34490    0.33680    1.000
    C228     C        0.39000    0.52390    0.34140    1.000
    H151     H        0.41300    0.54910    0.35650    1.000
    C229     C        0.36750    0.57540    0.30850    1.000
    H152     H        0.37480    0.63430    0.30240    1.000
    C230     C        0.46350    0.52810    0.44860    1.000
    H153     H        0.48250    0.51070    0.43310    1.000
    C231     C        0.47010    0.60390    0.47570    1.000
    H154     H        0.49300    0.63700    0.47800    1.000
    C232     C        0.44200    0.62940    0.49930    1.000
    C233     C        0.40860    0.57900    0.49460    1.000
    H155     H        0.38930    0.59450    0.51000    1.000
    C234     C        0.40380    0.50360    0.46630    1.000
    H156     H        0.38100    0.46980    0.46320    1.000
    C235     C        0.44800    0.70830    0.52960    1.000
    C236     C        0.48160    0.83450    0.55480    1.000
    C237     C        0.43210    0.78640    0.58590    1.000
    C238     C        0.40730    0.79690    0.61890    1.000
    C239     C        0.37110    0.75750    0.61390    1.000
    H157     H        0.36230    0.71950    0.59020    1.000
    C240     C        0.34770    0.77470    0.64460    1.000
    H158     H        0.32260    0.75130    0.63980    1.000
    C241     C        0.39590    0.85750    0.68620    1.000
    H159     H        0.40520    0.89060    0.71150    1.000
    C242     C        0.42000    0.84580    0.65640    1.000
    H160     H        0.44480    0.87110    0.66160    1.000
    C243     C        0.51400    0.89720    0.55550    1.000
    C244     C        0.53270    0.90730    0.52150    1.000
    H161     H        0.52470    0.87350    0.49620    1.000
    C245     C        0.56300    0.96660    0.52410    1.000
    H162     H        0.57460    0.97350    0.49970    1.000
    C246     C        0.55930    0.00250    0.59410    1.000
    H163     H        0.56860    0.03430    0.61980    1.000
    C247     C        0.52860    0.94560    0.59310    1.000
    H164     H        0.51740    0.93920    0.61770    1.000
    C248     C        0.17860    0.54660    0.09920    1.000
    H165     H        0.16730    0.57200    0.07240    1.000
    C249     C        0.20780    0.59390    0.12610    1.000
    H166     H        0.21530    0.65140    0.11820    1.000
    C250     C        0.22570    0.55350    0.16520    1.000
    C251     C        0.21280    0.46960    0.17620    1.000
    H167     H        0.22450    0.44140    0.20220    1.000
    C252     C        0.18230    0.42690    0.14840    1.000
    H168     H        0.17340    0.37090    0.15650    1.000
    I67      I        0.64960    0.12900    0.50150    1.000
    I68      I        0.36700    0.27260    0.44150    1.000
    I69      I        0.46930    0.32460    0.37820    1.000
    I70      I        0.59850    0.22690    0.61100    1.000
    I71      I        0.76420    0.73961    0.20390    1.000
    I72      I        0.86921    0.66160    0.30150    1.000
    I73      I        0.14587    0.60730    0.49441    1.000
    I74      I        0.88310    0.75352    0.43692    1.000
    I75      I        0.97701    0.83708    0.36496    1.000
    I76      I        0.10616    0.74810    0.60575    1.000
    Zn22     Zn       0.82629    0.64855    0.22601    1.000
    Zn23     Zn       0.91821    0.87114    0.39994    1.000
    Zn24     Zn       0.12329    0.60391    0.56750    1.000
    N85      N        0.81620    0.50980    0.21620    1.000
    N86      N        0.76540    0.18750    0.18720    1.000
    N87      N        0.81940    0.17710    0.24560    1.000
    N88      N        0.77890    0.04840    0.22600    1.000
    N89      N        0.88010    0.94000    0.35240    1.000
    N90      N        0.93070    0.97890    0.44390    1.000
    N91      N        0.92470    0.21360    0.55830    1.000
    N92      N        0.97650    0.26690    0.52540    1.000
    N93      N        0.95950    0.34770    0.58510    1.000
    N94      N        0.86020    0.32370    0.68070    1.000
    N95      N        0.07690    0.51510    0.56000    1.000
    N96      N        0.66560    0.96380    0.11050    1.000
    C253     C        0.78410    0.47500    0.19290    1.000
    H169     H        0.76550    0.51480    0.17800    1.000
    C254     C        0.77670    0.38120    0.18950    1.000
    H170     H        0.75410    0.35940    0.17200    1.000
    C255     C        0.80330    0.32200    0.21230    1.000
    C256     C        0.83770    0.35800    0.23620    1.000
    H171     H        0.85680    0.31970    0.25120    1.000
    C257     C        0.84270    0.45120    0.23730    1.000
    H172     H        0.86570    0.47480    0.25330    1.000
    C258     C        0.79560    0.22320    0.21430    1.000
    C259     C        0.75860    0.09910    0.19510    1.000
    C260     C        0.80970    0.09020    0.24970    1.000
    C261     C        0.83380    0.03650    0.28510    1.000
    C262     C        0.82410    0.94870    0.29580    1.000
    H173     H        0.80190    0.92070    0.28030    1.000
    C263     C        0.84770    0.90340    0.32960    1.000
    H174     H        0.84080    0.84490    0.33680    1.000
    C264     C        0.89000    0.02390    0.34140    1.000
    H175     H        0.91300    0.04910    0.35650    1.000
    C265     C        0.86750    0.07540    0.30850    1.000
    H176     H        0.87480    0.13430    0.30240    1.000
    C266     C        0.96350    0.02810    0.44860    1.000
    H177     H        0.98250    0.01070    0.43310    1.000
    C267     C        0.97010    0.10390    0.47570    1.000
    H178     H        0.99300    0.13700    0.47800    1.000
    C268     C        0.94200    0.12940    0.49930    1.000
    C269     C        0.90860    0.07900    0.49460    1.000
    H179     H        0.88930    0.09450    0.51000    1.000
    C270     C        0.90380    0.00360    0.46630    1.000
    H180     H        0.88100    0.96980    0.46320    1.000
    C271     C        0.94800    0.20830    0.52960    1.000
    C272     C        0.98160    0.33450    0.55480    1.000
    C273     C        0.93210    0.28640    0.58590    1.000
    C274     C        0.90730    0.29690    0.61890    1.000
    C275     C        0.87110    0.25750    0.61390    1.000
    H181     H        0.86230    0.21950    0.59020    1.000
    C276     C        0.84770    0.27470    0.64460    1.000
    H182     H        0.82260    0.25130    0.63980    1.000
    C277     C        0.89590    0.35750    0.68620    1.000
    H183     H        0.90520    0.39060    0.71150    1.000
    C278     C        0.92000    0.34580    0.65640    1.000
    H184     H        0.94480    0.37110    0.66160    1.000
    C279     C        0.01400    0.39720    0.55550    1.000
    C280     C        0.03270    0.40730    0.52150    1.000
    H185     H        0.02470    0.37350    0.49620    1.000
    C281     C        0.06300    0.46660    0.52410    1.000
    H186     H        0.07460    0.47350    0.49970    1.000
    C282     C        0.05930    0.50250    0.59410    1.000
    H187     H        0.06860    0.53430    0.61980    1.000
    C283     C        0.02860    0.44560    0.59310    1.000
    H188     H        0.01740    0.43920    0.61770    1.000
    C284     C        0.67860    0.04660    0.09920    1.000
    H189     H        0.66730    0.07200    0.07240    1.000
    C285     C        0.70780    0.09390    0.12610    1.000
    H190     H        0.71530    0.15140    0.11820    1.000
    C286     C        0.72570    0.05350    0.16520    1.000
    C287     C        0.71280    0.96960    0.17620    1.000
    H191     H        0.72450    0.94140    0.20220    1.000
    C288     C        0.68230    0.92690    0.14840    1.000
    H192     H        0.67340    0.87090    0.15650    1.000
    I77      I        0.14960    0.62900    0.50150    1.000
    I78      I        0.86700    0.77260    0.44150    1.000
    I79      I        0.96930    0.82460    0.37820    1.000
    I80      I        0.09850    0.72690    0.61100    1.000
