# CIF file generated by openbabel 3.1.0, see https://openbabel.org
data_I
_chemical_name_common 'image0'
_cell_length_a 35.1044
_cell_length_b 35.1044
_cell_length_c 11.7352
_cell_angle_alpha 90
_cell_angle_beta 90
_cell_angle_gamma 90
_space_group_name_H-M_alt 'P 1'
_space_group_name_Hall 'P 1'
loop_
    _symmetry_equiv_pos_as_xyz
    x,y,z
loop_
    _atom_site_label
    _atom_site_type_symbol
    _atom_site_fract_x
    _atom_site_fract_y
    _atom_site_fract_z
    _atom_site_occupancy
    C1       C        0.88030    0.60310    0.99900    1.000
    C2       C        0.89470    0.60470    0.88700    1.000
    H1       H        0.88480    0.58860    0.83090    1.000
    C3       C        0.92380    0.63030    0.85900    1.000
    H2       H        0.93340    0.63220    0.78580    1.000
    C4       C        0.93810    0.65350    0.95100    1.000
    H3       H        0.95800    0.67050    0.93810    1.000
    C5       C        0.92190    0.65030    0.05900    1.000
    C6       C        0.89340    0.62470    0.08500    1.000
    H4       H        0.88380    0.62250    0.15820    1.000
    C7       C        0.94510    0.71300    0.13800    1.000
    H5       H        0.94360    0.72720    0.07170    1.000
    C8       C        0.94160    0.66790    0.25700    1.000
    H6       H        0.93720    0.64420    0.28960    1.000
    C9       C        0.81840    0.57170    0.96100    1.000
    H7       H        0.81380    0.58240    0.88950    1.000
    C10      C        0.84520    0.55710    0.12000    1.000
    H8       H        0.86230    0.55680    0.18100    1.000
    C11      C        0.83830    0.66430    0.66600    1.000
    C12      C        0.83620    0.62950    0.60640    1.000
    H9       H        0.85730    0.61940    0.56910    1.000
    C13      C        0.80260    0.61170    0.60600    1.000
    C14      C        0.77200    0.62610    0.66100    1.000
    H10      H        0.74850    0.61420    0.65470    1.000
    C15      C        0.77580    0.65930    0.72700    1.000
    H11      H        0.75640    0.66720    0.77580    1.000
    C16      C        0.80960    0.68010    0.71800    1.000
    H12      H        0.81150    0.70450    0.74800    1.000
    C17      C        0.88930    0.70900    0.72900    1.000
    H13      H        0.87900    0.71350    0.80080    1.000
    C18      C        0.89640    0.68870    0.55900    1.000
    H14      H        0.89190    0.67540    0.49220    1.000
    C19      C        0.80910    0.56970    0.43500    1.000
    H15      H        0.82270    0.58650    0.38950    1.000
    C20      C        0.78030    0.54460    0.57300    1.000
    H16      H        0.77030    0.54040    0.64570    1.000
    Cu1      Cu       0.96905    0.70842    0.47260    1.000
    Cu2      Cu       0.78627    0.51152    0.24410    1.000
    N1       N        0.93610    0.67580    0.14540    1.000
    N2       N        0.95380    0.69740    0.31180    1.000
    N3       N        0.95620    0.72660    0.23500    1.000
    N4       N        0.84940    0.57810    0.02120    1.000
    N5       N        0.81310    0.53750    0.11510    1.000
    N6       N        0.79450    0.54790    0.01430    1.000
    N7       N        0.79850    0.57730    0.54290    1.000
    N8       N        0.79810    0.53630    0.40360    1.000
    N9       N        0.77840    0.52030    0.49250    1.000
    N10      N        0.87440    0.68590    0.65120    1.000
    N11      N        0.92510    0.71210    0.57320    1.000
    N12      N        0.92150    0.72480    0.68800    1.000
    C21      C        0.38030    0.10310    0.49900    1.000
    C22      C        0.39470    0.10470    0.38700    1.000
    H17      H        0.38480    0.08860    0.33090    1.000
    C23      C        0.42380    0.13030    0.35900    1.000
    H18      H        0.43340    0.13220    0.28580    1.000
    C24      C        0.43810    0.15350    0.45100    1.000
    H19      H        0.45800    0.17050    0.43810    1.000
    C25      C        0.42190    0.15030    0.55900    1.000
    C26      C        0.39340    0.12470    0.58500    1.000
    H20      H        0.38380    0.12250    0.65820    1.000
    C27      C        0.44510    0.21300    0.63800    1.000
    H21      H        0.44360    0.22720    0.57170    1.000
    C28      C        0.44160    0.16790    0.75700    1.000
    H22      H        0.43720    0.14420    0.78960    1.000
    C29      C        0.31840    0.07170    0.46100    1.000
    H23      H        0.31380    0.08240    0.38950    1.000
    C30      C        0.34520    0.05710    0.62000    1.000
    H24      H        0.36230    0.05680    0.68100    1.000
    C31      C        0.33830    0.16430    0.16600    1.000
    C32      C        0.33620    0.12950    0.10640    1.000
    H25      H        0.35730    0.11940    0.06910    1.000
    C33      C        0.30260    0.11170    0.10600    1.000
    C34      C        0.27200    0.12610    0.16100    1.000
    H26      H        0.24850    0.11420    0.15470    1.000
    C35      C        0.27580    0.15930    0.22700    1.000
    H27      H        0.25640    0.16720    0.27580    1.000
    C36      C        0.30960    0.18010    0.21800    1.000
    H28      H        0.31150    0.20450    0.24800    1.000
    C37      C        0.38930    0.20900    0.22900    1.000
    H29      H        0.37900    0.21350    0.30080    1.000
    C38      C        0.39640    0.18870    0.05900    1.000
    H30      H        0.39190    0.17540    0.99220    1.000
    C39      C        0.30910    0.06970    0.93500    1.000
    H31      H        0.32270    0.08650    0.88950    1.000
    C40      C        0.28030    0.04460    0.07300    1.000
    H32      H        0.27030    0.04040    0.14570    1.000
    Cu3      Cu       0.46905    0.20842    0.97260    1.000
    Cu4      Cu       0.28627    0.01152    0.74410    1.000
    N13      N        0.43610    0.17580    0.64540    1.000
    N14      N        0.45380    0.19740    0.81180    1.000
    N15      N        0.45620    0.22660    0.73500    1.000
    N16      N        0.34940    0.07810    0.52120    1.000
    N17      N        0.31310    0.03750    0.61510    1.000
    N18      N        0.29450    0.04790    0.51430    1.000
    N19      N        0.29850    0.07730    0.04290    1.000
    N20      N        0.29810    0.03630    0.90360    1.000
    N21      N        0.27840    0.02030    0.99250    1.000
    N22      N        0.37440    0.18590    0.15120    1.000
    N23      N        0.42510    0.21210    0.07320    1.000
    N24      N        0.42150    0.22480    0.18800    1.000
    C41      C        0.61970    0.39690    0.49900    1.000
    C42      C        0.60530    0.39530    0.38700    1.000
    H33      H        0.61520    0.41140    0.33090    1.000
    C43      C        0.57620    0.36970    0.35900    1.000
    H34      H        0.56660    0.36780    0.28580    1.000
    C44      C        0.56190    0.34650    0.45100    1.000
    H35      H        0.54200    0.32950    0.43810    1.000
    C45      C        0.57810    0.34970    0.55900    1.000
    C46      C        0.60660    0.37530    0.58500    1.000
    H36      H        0.61620    0.37750    0.65820    1.000
    C47      C        0.55490    0.28700    0.63800    1.000
    H37      H        0.55640    0.27280    0.57170    1.000
    C48      C        0.55840    0.33210    0.75700    1.000
    H38      H        0.56280    0.35580    0.78960    1.000
    C49      C        0.68160    0.42830    0.46100    1.000
    H39      H        0.68620    0.41760    0.38950    1.000
    C50      C        0.65480    0.44290    0.62000    1.000
    H40      H        0.63770    0.44320    0.68100    1.000
    C51      C        0.66170    0.33570    0.16600    1.000
    C52      C        0.66380    0.37050    0.10640    1.000
    H41      H        0.64270    0.38060    0.06910    1.000
    C53      C        0.69740    0.38830    0.10600    1.000
    C54      C        0.72800    0.37390    0.16100    1.000
    H42      H        0.75150    0.38580    0.15470    1.000
    C55      C        0.72420    0.34070    0.22700    1.000
    H43      H        0.74360    0.33280    0.27580    1.000
    C56      C        0.69040    0.31990    0.21800    1.000
    H44      H        0.68850    0.29550    0.24800    1.000
    C57      C        0.61070    0.29100    0.22900    1.000
    H45      H        0.62100    0.28650    0.30080    1.000
    C58      C        0.60360    0.31130    0.05900    1.000
    H46      H        0.60810    0.32460    0.99220    1.000
    C59      C        0.69090    0.43030    0.93500    1.000
    H47      H        0.67730    0.41350    0.88950    1.000
    C60      C        0.71970    0.45540    0.07300    1.000
    H48      H        0.72970    0.45960    0.14570    1.000
    Cu5      Cu       0.53095    0.29158    0.97260    1.000
    Cu6      Cu       0.71373    0.48848    0.74410    1.000
    N25      N        0.56390    0.32420    0.64540    1.000
    N26      N        0.54620    0.30260    0.81180    1.000
    N27      N        0.54380    0.27340    0.73500    1.000
    N28      N        0.65060    0.42190    0.52120    1.000
    N29      N        0.68690    0.46250    0.61510    1.000
    N30      N        0.70550    0.45210    0.51430    1.000
    N31      N        0.70150    0.42270    0.04290    1.000
    N32      N        0.70190    0.46370    0.90360    1.000
    N33      N        0.72160    0.47970    0.99250    1.000
    N34      N        0.62560    0.31410    0.15120    1.000
    N35      N        0.57490    0.28790    0.07320    1.000
    N36      N        0.57850    0.27520    0.18800    1.000
    C61      C        0.11970    0.89690    0.99900    1.000
    C62      C        0.10530    0.89530    0.88700    1.000
    H49      H        0.11520    0.91140    0.83090    1.000
    C63      C        0.07620    0.86970    0.85900    1.000
    H50      H        0.06660    0.86780    0.78580    1.000
    C64      C        0.06190    0.84650    0.95100    1.000
    H51      H        0.04200    0.82950    0.93810    1.000
    C65      C        0.07810    0.84970    0.05900    1.000
    C66      C        0.10660    0.87530    0.08500    1.000
    H52      H        0.11620    0.87750    0.15820    1.000
    C67      C        0.05490    0.78700    0.13800    1.000
    H53      H        0.05640    0.77280    0.07170    1.000
    C68      C        0.05840    0.83210    0.25700    1.000
    H54      H        0.06280    0.85580    0.28960    1.000
    C69      C        0.18160    0.92830    0.96100    1.000
    H55      H        0.18620    0.91760    0.88950    1.000
    C70      C        0.15480    0.94290    0.12000    1.000
    H56      H        0.13770    0.94320    0.18100    1.000
    C71      C        0.16170    0.83570    0.66600    1.000
    C72      C        0.16380    0.87050    0.60640    1.000
    H57      H        0.14270    0.88060    0.56910    1.000
    C73      C        0.19740    0.88830    0.60600    1.000
    C74      C        0.22800    0.87390    0.66100    1.000
    H58      H        0.25150    0.88580    0.65470    1.000
    C75      C        0.22420    0.84070    0.72700    1.000
    H59      H        0.24360    0.83280    0.77580    1.000
    C76      C        0.19040    0.81990    0.71800    1.000
    H60      H        0.18850    0.79550    0.74800    1.000
    C77      C        0.11070    0.79100    0.72900    1.000
    H61      H        0.12100    0.78650    0.80080    1.000
    C78      C        0.10360    0.81130    0.55900    1.000
    H62      H        0.10810    0.82460    0.49220    1.000
    C79      C        0.19090    0.93030    0.43500    1.000
    H63      H        0.17730    0.91350    0.38950    1.000
    C80      C        0.21970    0.95540    0.57300    1.000
    H64      H        0.22970    0.95960    0.64570    1.000
    Cu7      Cu       0.03095    0.79158    0.47260    1.000
    Cu8      Cu       0.21373    0.98848    0.24410    1.000
    N37      N        0.06390    0.82420    0.14540    1.000
    N38      N        0.04620    0.80260    0.31180    1.000
    N39      N        0.04380    0.77340    0.23500    1.000
    N40      N        0.15060    0.92190    0.02120    1.000
    N41      N        0.18690    0.96250    0.11510    1.000
    N42      N        0.20550    0.95210    0.01430    1.000
    N43      N        0.20150    0.92270    0.54290    1.000
    N44      N        0.20190    0.96370    0.40360    1.000
    N45      N        0.22160    0.97970    0.49250    1.000
    N46      N        0.12560    0.81410    0.65120    1.000
    N47      N        0.07490    0.78790    0.57320    1.000
    N48      N        0.07850    0.77520    0.68800    1.000
    C81      C        0.14690    0.13030    0.24900    1.000
    C82      C        0.14530    0.14470    0.13700    1.000
    H65      H        0.16140    0.13480    0.08090    1.000
    C83      C        0.11970    0.17380    0.10900    1.000
    H66      H        0.11780    0.18340    0.03580    1.000
    C84      C        0.09650    0.18810    0.20100    1.000
    H67      H        0.07950    0.20800    0.18810    1.000
    C85      C        0.09970    0.17190    0.30900    1.000
    C86      C        0.12530    0.14340    0.33500    1.000
    H68      H        0.12750    0.13380    0.40820    1.000
    C87      C        0.03700    0.19510    0.38800    1.000
    H69      H        0.02280    0.19360    0.32170    1.000
    C88      C        0.08210    0.19160    0.50700    1.000
    H70      H        0.10580    0.18720    0.53960    1.000
    C89      C        0.17830    0.06840    0.21100    1.000
    H71      H        0.16760    0.06380    0.13950    1.000
    C90      C        0.19290    0.09520    0.37000    1.000
    H72      H        0.19320    0.11230    0.43100    1.000
    C91      C        0.08570    0.08830    0.91600    1.000
    C92      C        0.12050    0.08620    0.85640    1.000
    H73      H        0.13060    0.10730    0.81910    1.000
    C93      C        0.13830    0.05260    0.85600    1.000
    C94      C        0.12390    0.02200    0.91100    1.000
    H74      H        0.13580    0.99850    0.90470    1.000
    C95      C        0.09070    0.02580    0.97700    1.000
    H75      H        0.08280    0.00640    0.02580    1.000
    C96      C        0.06990    0.05960    0.96800    1.000
    H76      H        0.04550    0.06150    0.99800    1.000
    C97      C        0.04100    0.13930    0.97900    1.000
    H77      H        0.03650    0.12900    0.05080    1.000
    C98      C        0.06130    0.14640    0.80900    1.000
    H78      H        0.07460    0.14190    0.74220    1.000
    C99      C        0.18030    0.05910    0.68500    1.000
    H79      H        0.16350    0.07270    0.63950    1.000
    C100     C        0.20540    0.03030    0.82300    1.000
    H80      H        0.20960    0.02030    0.89570    1.000
    Cu9      Cu       0.04158    0.21905    0.72260    1.000
    Cu10     Cu       0.23848    0.03627    0.49410    1.000
    N49      N        0.07420    0.18610    0.39540    1.000
    N50      N        0.05260    0.20380    0.56180    1.000
    N51      N        0.02340    0.20620    0.48500    1.000
    N52      N        0.17190    0.09940    0.27120    1.000
    N53      N        0.21250    0.06310    0.36510    1.000
    N54      N        0.20210    0.04450    0.26430    1.000
    N55      N        0.17270    0.04850    0.79290    1.000
    N56      N        0.21370    0.04810    0.65360    1.000
    N57      N        0.22970    0.02840    0.74250    1.000
    N58      N        0.06410    0.12440    0.90120    1.000
    N59      N        0.03790    0.17510    0.82320    1.000
    N60      N        0.02520    0.17150    0.93800    1.000
    C101     C        0.64690    0.63030    0.74900    1.000
    C102     C        0.64530    0.64470    0.63700    1.000
    H81      H        0.66140    0.63480    0.58090    1.000
    C103     C        0.61970    0.67380    0.60900    1.000
    H82      H        0.61780    0.68340    0.53580    1.000
    C104     C        0.59650    0.68810    0.70100    1.000
    H83      H        0.57950    0.70800    0.68810    1.000
    C105     C        0.59970    0.67190    0.80900    1.000
    C106     C        0.62530    0.64340    0.83500    1.000
    H84      H        0.62750    0.63380    0.90820    1.000
    C107     C        0.53700    0.69510    0.88800    1.000
    H85      H        0.52280    0.69360    0.82170    1.000
    C108     C        0.58210    0.69160    0.00700    1.000
    H86      H        0.60580    0.68720    0.03960    1.000
    C109     C        0.67830    0.56840    0.71100    1.000
    H87      H        0.66760    0.56380    0.63950    1.000
    C110     C        0.69290    0.59520    0.87000    1.000
    H88      H        0.69320    0.61230    0.93100    1.000
    C111     C        0.58570    0.58830    0.41600    1.000
    C112     C        0.62050    0.58620    0.35640    1.000
    H89      H        0.63060    0.60730    0.31910    1.000
    C113     C        0.63830    0.55260    0.35600    1.000
    C114     C        0.62390    0.52200    0.41100    1.000
    H90      H        0.63580    0.49850    0.40470    1.000
    C115     C        0.59070    0.52580    0.47700    1.000
    H91      H        0.58280    0.50640    0.52580    1.000
    C116     C        0.56990    0.55960    0.46800    1.000
    H92      H        0.54550    0.56150    0.49800    1.000
    C117     C        0.54100    0.63930    0.47900    1.000
    H93      H        0.53650    0.62900    0.55080    1.000
    C118     C        0.56130    0.64640    0.30900    1.000
    H94      H        0.57460    0.64190    0.24220    1.000
    C119     C        0.68030    0.55910    0.18500    1.000
    H95      H        0.66350    0.57270    0.13950    1.000
    C120     C        0.70540    0.53030    0.32300    1.000
    H96      H        0.70960    0.52030    0.39570    1.000
    Cu11     Cu       0.54158    0.71905    0.22260    1.000
    Cu12     Cu       0.73848    0.53627    0.99410    1.000
    N61      N        0.57420    0.68610    0.89540    1.000
    N62      N        0.55260    0.70380    0.06180    1.000
    N63      N        0.52340    0.70620    0.98500    1.000
    N64      N        0.67190    0.59940    0.77120    1.000
    N65      N        0.71250    0.56310    0.86510    1.000
    N66      N        0.70210    0.54450    0.76430    1.000
    N67      N        0.67270    0.54850    0.29290    1.000
    N68      N        0.71370    0.54810    0.15360    1.000
    N69      N        0.72970    0.52840    0.24250    1.000
    N70      N        0.56410    0.62440    0.40120    1.000
    N71      N        0.53790    0.67510    0.32320    1.000
    N72      N        0.52520    0.67150    0.43800    1.000
    C121     C        0.35310    0.86970    0.74900    1.000
    C122     C        0.35470    0.85530    0.63700    1.000
    H97      H        0.33860    0.86520    0.58090    1.000
    C123     C        0.38030    0.82620    0.60900    1.000
    H98      H        0.38220    0.81660    0.53580    1.000
    C124     C        0.40350    0.81190    0.70100    1.000
    H99      H        0.42050    0.79200    0.68810    1.000
    C125     C        0.40030    0.82810    0.80900    1.000
    C126     C        0.37470    0.85660    0.83500    1.000
    H100     H        0.37250    0.86620    0.90820    1.000
    C127     C        0.46300    0.80490    0.88800    1.000
    H101     H        0.47720    0.80640    0.82170    1.000
    C128     C        0.41790    0.80840    0.00700    1.000
    H102     H        0.39420    0.81280    0.03960    1.000
    C129     C        0.32170    0.93160    0.71100    1.000
    H103     H        0.33240    0.93620    0.63950    1.000
    C130     C        0.30710    0.90480    0.87000    1.000
    H104     H        0.30680    0.88770    0.93100    1.000
    C131     C        0.41430    0.91170    0.41600    1.000
    C132     C        0.37950    0.91380    0.35640    1.000
    H105     H        0.36940    0.89270    0.31910    1.000
    C133     C        0.36170    0.94740    0.35600    1.000
    C134     C        0.37610    0.97800    0.41100    1.000
    H106     H        0.36420    0.00150    0.40470    1.000
    C135     C        0.40930    0.97420    0.47700    1.000
    H107     H        0.41720    0.99360    0.52580    1.000
    C136     C        0.43010    0.94040    0.46800    1.000
    H108     H        0.45450    0.93850    0.49800    1.000
    C137     C        0.45900    0.86070    0.47900    1.000
    H109     H        0.46350    0.87100    0.55080    1.000
    C138     C        0.43870    0.85360    0.30900    1.000
    H110     H        0.42540    0.85810    0.24220    1.000
    C139     C        0.31970    0.94090    0.18500    1.000
    H111     H        0.33650    0.92730    0.13950    1.000
    C140     C        0.29460    0.96970    0.32300    1.000
    H112     H        0.29040    0.97970    0.39570    1.000
    Cu13     Cu       0.45842    0.78095    0.22260    1.000
    Cu14     Cu       0.26152    0.96373    0.99410    1.000
    N73      N        0.42580    0.81390    0.89540    1.000
    N74      N        0.44740    0.79620    0.06180    1.000
    N75      N        0.47660    0.79380    0.98500    1.000
    N76      N        0.32810    0.90060    0.77120    1.000
    N77      N        0.28750    0.93690    0.86510    1.000
    N78      N        0.29790    0.95550    0.76430    1.000
    N79      N        0.32730    0.95150    0.29290    1.000
    N80      N        0.28630    0.95190    0.15360    1.000
    N81      N        0.27030    0.97160    0.24250    1.000
    N82      N        0.43590    0.87560    0.40120    1.000
    N83      N        0.46210    0.82490    0.32320    1.000
    N84      N        0.47480    0.82850    0.43800    1.000
    C141     C        0.85310    0.36970    0.24900    1.000
    C142     C        0.85470    0.35530    0.13700    1.000
    H113     H        0.83860    0.36520    0.08090    1.000
    C143     C        0.88030    0.32620    0.10900    1.000
    H114     H        0.88220    0.31660    0.03580    1.000
    C144     C        0.90350    0.31190    0.20100    1.000
    H115     H        0.92050    0.29200    0.18810    1.000
    C145     C        0.90030    0.32810    0.30900    1.000
    C146     C        0.87470    0.35660    0.33500    1.000
    H116     H        0.87250    0.36620    0.40820    1.000
    C147     C        0.96300    0.30490    0.38800    1.000
    H117     H        0.97720    0.30640    0.32170    1.000
    C148     C        0.91790    0.30840    0.50700    1.000
    H118     H        0.89420    0.31280    0.53960    1.000
    C149     C        0.82170    0.43160    0.21100    1.000
    H119     H        0.83240    0.43620    0.13950    1.000
    C150     C        0.80710    0.40480    0.37000    1.000
    H120     H        0.80680    0.38770    0.43100    1.000
    C151     C        0.91430    0.41170    0.91600    1.000
    C152     C        0.87950    0.41380    0.85640    1.000
    H121     H        0.86940    0.39270    0.81910    1.000
    C153     C        0.86170    0.44740    0.85600    1.000
    C154     C        0.87610    0.47800    0.91100    1.000
    H122     H        0.86420    0.50150    0.90470    1.000
    C155     C        0.90930    0.47420    0.97700    1.000
    H123     H        0.91720    0.49360    0.02580    1.000
    C156     C        0.93010    0.44040    0.96800    1.000
    H124     H        0.95450    0.43850    0.99800    1.000
    C157     C        0.95900    0.36070    0.97900    1.000
    H125     H        0.96350    0.37100    0.05080    1.000
    C158     C        0.93870    0.35360    0.80900    1.000
    H126     H        0.92540    0.35810    0.74220    1.000
    C159     C        0.81970    0.44090    0.68500    1.000
    H127     H        0.83650    0.42730    0.63950    1.000
    C160     C        0.79460    0.46970    0.82300    1.000
    H128     H        0.79040    0.47970    0.89570    1.000
    Cu15     Cu       0.95842    0.28095    0.72260    1.000
    Cu16     Cu       0.76152    0.46373    0.49410    1.000
    N85      N        0.92580    0.31390    0.39540    1.000
    N86      N        0.94740    0.29620    0.56180    1.000
    N87      N        0.97660    0.29380    0.48500    1.000
    N88      N        0.82810    0.40060    0.27120    1.000
    N89      N        0.78750    0.43690    0.36510    1.000
    N90      N        0.79790    0.45550    0.26430    1.000
    N91      N        0.82730    0.45150    0.79290    1.000
    N92      N        0.78630    0.45190    0.65360    1.000
    N93      N        0.77030    0.47160    0.74250    1.000
    N94      N        0.93590    0.37560    0.90120    1.000
    N95      N        0.96210    0.32490    0.82320    1.000
    N96      N        0.97480    0.32850    0.93800    1.000
    C161     C        0.11970    0.39690    0.00100    1.000
    C162     C        0.10530    0.39530    0.11300    1.000
    H129     H        0.11520    0.41140    0.16910    1.000
    C163     C        0.07620    0.36970    0.14100    1.000
    H130     H        0.06660    0.36780    0.21420    1.000
    C164     C        0.06190    0.34650    0.04900    1.000
    H131     H        0.04200    0.32950    0.06190    1.000
    C165     C        0.07810    0.34970    0.94100    1.000
    C166     C        0.10660    0.37530    0.91500    1.000
    H132     H        0.11620    0.37750    0.84180    1.000
    C167     C        0.05490    0.28700    0.86200    1.000
    H133     H        0.05640    0.27280    0.92830    1.000
    C168     C        0.05840    0.33210    0.74300    1.000
    H134     H        0.06280    0.35580    0.71040    1.000
    C169     C        0.18160    0.42830    0.03900    1.000
    H135     H        0.18620    0.41760    0.11050    1.000
    C170     C        0.15480    0.44290    0.88000    1.000
    H136     H        0.13770    0.44320    0.81900    1.000
    C171     C        0.16170    0.33570    0.33400    1.000
    C172     C        0.16380    0.37050    0.39360    1.000
    H137     H        0.14270    0.38060    0.43090    1.000
    C173     C        0.19740    0.38830    0.39400    1.000
    C174     C        0.22800    0.37390    0.33900    1.000
    H138     H        0.25150    0.38580    0.34530    1.000
    C175     C        0.22420    0.34070    0.27300    1.000
    H139     H        0.24360    0.33280    0.22420    1.000
    C176     C        0.19040    0.31990    0.28200    1.000
    H140     H        0.18850    0.29550    0.25200    1.000
    C177     C        0.11070    0.29100    0.27100    1.000
    H141     H        0.12100    0.28650    0.19920    1.000
    C178     C        0.10360    0.31130    0.44100    1.000
    H142     H        0.10810    0.32460    0.50780    1.000
    C179     C        0.19090    0.43030    0.56500    1.000
    H143     H        0.17730    0.41350    0.61050    1.000
    C180     C        0.21970    0.45540    0.42700    1.000
    H144     H        0.22970    0.45960    0.35430    1.000
    Cu17     Cu       0.03095    0.29158    0.52740    1.000
    Cu18     Cu       0.21373    0.48848    0.75590    1.000
    N97      N        0.06390    0.32420    0.85460    1.000
    N98      N        0.04620    0.30260    0.68820    1.000
    N99      N        0.04380    0.27340    0.76500    1.000
    N100     N        0.15060    0.42190    0.97880    1.000
    N101     N        0.18690    0.46250    0.88490    1.000
    N102     N        0.20550    0.45210    0.98570    1.000
    N103     N        0.20150    0.42270    0.45710    1.000
    N104     N        0.20190    0.46370    0.59640    1.000
    N105     N        0.22160    0.47970    0.50750    1.000
    N106     N        0.12560    0.31410    0.34880    1.000
    N107     N        0.07490    0.28790    0.42680    1.000
    N108     N        0.07850    0.27520    0.31200    1.000
    C181     C        0.61970    0.89690    0.50100    1.000
    C182     C        0.60530    0.89530    0.61300    1.000
    H145     H        0.61520    0.91140    0.66910    1.000
    C183     C        0.57620    0.86970    0.64100    1.000
    H146     H        0.56660    0.86780    0.71420    1.000
    C184     C        0.56190    0.84650    0.54900    1.000
    H147     H        0.54200    0.82950    0.56190    1.000
    C185     C        0.57810    0.84970    0.44100    1.000
    C186     C        0.60660    0.87530    0.41500    1.000
    H148     H        0.61620    0.87750    0.34180    1.000
    C187     C        0.55490    0.78700    0.36200    1.000
    H149     H        0.55640    0.77280    0.42830    1.000
    C188     C        0.55840    0.83210    0.24300    1.000
    H150     H        0.56280    0.85580    0.21040    1.000
    C189     C        0.68160    0.92830    0.53900    1.000
    H151     H        0.68620    0.91760    0.61050    1.000
    C190     C        0.65480    0.94290    0.38000    1.000
    H152     H        0.63770    0.94320    0.31900    1.000
    C191     C        0.66170    0.83570    0.83400    1.000
    C192     C        0.66380    0.87050    0.89360    1.000
    H153     H        0.64270    0.88060    0.93090    1.000
    C193     C        0.69740    0.88830    0.89400    1.000
    C194     C        0.72800    0.87390    0.83900    1.000
    H154     H        0.75150    0.88580    0.84530    1.000
    C195     C        0.72420    0.84070    0.77300    1.000
    H155     H        0.74360    0.83280    0.72420    1.000
    C196     C        0.69040    0.81990    0.78200    1.000
    H156     H        0.68850    0.79550    0.75200    1.000
    C197     C        0.61070    0.79100    0.77100    1.000
    H157     H        0.62100    0.78650    0.69920    1.000
    C198     C        0.60360    0.81130    0.94100    1.000
    H158     H        0.60810    0.82460    0.00780    1.000
    C199     C        0.69090    0.93030    0.06500    1.000
    H159     H        0.67730    0.91350    0.11050    1.000
    C200     C        0.71970    0.95540    0.92700    1.000
    H160     H        0.72970    0.95960    0.85430    1.000
    Cu19     Cu       0.53095    0.79158    0.02740    1.000
    Cu20     Cu       0.71373    0.98848    0.25590    1.000
    N109     N        0.56390    0.82420    0.35460    1.000
    N110     N        0.54620    0.80260    0.18820    1.000
    N111     N        0.54380    0.77340    0.26500    1.000
    N112     N        0.65060    0.92190    0.47880    1.000
    N113     N        0.68690    0.96250    0.38490    1.000
    N114     N        0.70550    0.95210    0.48570    1.000
    N115     N        0.70150    0.92270    0.95710    1.000
    N116     N        0.70190    0.96370    0.09640    1.000
    N117     N        0.72160    0.97970    0.00750    1.000
    N118     N        0.62560    0.81410    0.84880    1.000
    N119     N        0.57490    0.78790    0.92680    1.000
    N120     N        0.57850    0.77520    0.81200    1.000
    C201     C        0.38030    0.60310    0.50100    1.000
    C202     C        0.39470    0.60470    0.61300    1.000
    H161     H        0.38480    0.58860    0.66910    1.000
    C203     C        0.42380    0.63030    0.64100    1.000
    H162     H        0.43340    0.63220    0.71420    1.000
    C204     C        0.43810    0.65350    0.54900    1.000
    H163     H        0.45800    0.67050    0.56190    1.000
    C205     C        0.42190    0.65030    0.44100    1.000
    C206     C        0.39340    0.62470    0.41500    1.000
    H164     H        0.38380    0.62250    0.34180    1.000
    C207     C        0.44510    0.71300    0.36200    1.000
    H165     H        0.44360    0.72720    0.42830    1.000
    C208     C        0.44160    0.66790    0.24300    1.000
    H166     H        0.43720    0.64420    0.21040    1.000
    C209     C        0.31840    0.57170    0.53900    1.000
    H167     H        0.31380    0.58240    0.61050    1.000
    C210     C        0.34520    0.55710    0.38000    1.000
    H168     H        0.36230    0.55680    0.31900    1.000
    C211     C        0.33830    0.66430    0.83400    1.000
    C212     C        0.33620    0.62950    0.89360    1.000
    H169     H        0.35730    0.61940    0.93090    1.000
    C213     C        0.30260    0.61170    0.89400    1.000
    C214     C        0.27200    0.62610    0.83900    1.000
    H170     H        0.24850    0.61420    0.84530    1.000
    C215     C        0.27580    0.65930    0.77300    1.000
    H171     H        0.25640    0.66720    0.72420    1.000
    C216     C        0.30960    0.68010    0.78200    1.000
    H172     H        0.31150    0.70450    0.75200    1.000
    C217     C        0.38930    0.70900    0.77100    1.000
    H173     H        0.37900    0.71350    0.69920    1.000
    C218     C        0.39640    0.68870    0.94100    1.000
    H174     H        0.39190    0.67540    0.00780    1.000
    C219     C        0.30910    0.56970    0.06500    1.000
    H175     H        0.32270    0.58650    0.11050    1.000
    C220     C        0.28030    0.54460    0.92700    1.000
    H176     H        0.27030    0.54040    0.85430    1.000
    Cu21     Cu       0.46905    0.70842    0.02740    1.000
    Cu22     Cu       0.28627    0.51152    0.25590    1.000
    N121     N        0.43610    0.67580    0.35460    1.000
    N122     N        0.45380    0.69740    0.18820    1.000
    N123     N        0.45620    0.72660    0.26500    1.000
    N124     N        0.34940    0.57810    0.47880    1.000
    N125     N        0.31310    0.53750    0.38490    1.000
    N126     N        0.29450    0.54790    0.48570    1.000
    N127     N        0.29850    0.57730    0.95710    1.000
    N128     N        0.29810    0.53630    0.09640    1.000
    N129     N        0.27840    0.52030    0.00750    1.000
    N130     N        0.37440    0.68590    0.84880    1.000
    N131     N        0.42510    0.71210    0.92680    1.000
    N132     N        0.42150    0.72480    0.81200    1.000
    C221     C        0.88030    0.10310    0.00100    1.000
    C222     C        0.89470    0.10470    0.11300    1.000
    H177     H        0.88480    0.08860    0.16910    1.000
    C223     C        0.92380    0.13030    0.14100    1.000
    H178     H        0.93340    0.13220    0.21420    1.000
    C224     C        0.93810    0.15350    0.04900    1.000
    H179     H        0.95800    0.17050    0.06190    1.000
    C225     C        0.92190    0.15030    0.94100    1.000
    C226     C        0.89340    0.12470    0.91500    1.000
    H180     H        0.88380    0.12250    0.84180    1.000
    C227     C        0.94510    0.21300    0.86200    1.000
    H181     H        0.94360    0.22720    0.92830    1.000
    C228     C        0.94160    0.16790    0.74300    1.000
    H182     H        0.93720    0.14420    0.71040    1.000
    C229     C        0.81840    0.07170    0.03900    1.000
    H183     H        0.81380    0.08240    0.11050    1.000
    C230     C        0.84520    0.05710    0.88000    1.000
    H184     H        0.86230    0.05680    0.81900    1.000
    C231     C        0.83830    0.16430    0.33400    1.000
    C232     C        0.83620    0.12950    0.39360    1.000
    H185     H        0.85730    0.11940    0.43090    1.000
    C233     C        0.80260    0.11170    0.39400    1.000
    C234     C        0.77200    0.12610    0.33900    1.000
    H186     H        0.74850    0.11420    0.34530    1.000
    C235     C        0.77580    0.15930    0.27300    1.000
    H187     H        0.75640    0.16720    0.22420    1.000
    C236     C        0.80960    0.18010    0.28200    1.000
    H188     H        0.81150    0.20450    0.25200    1.000
    C237     C        0.88930    0.20900    0.27100    1.000
    H189     H        0.87900    0.21350    0.19920    1.000
    C238     C        0.89640    0.18870    0.44100    1.000
    H190     H        0.89190    0.17540    0.50780    1.000
    C239     C        0.80910    0.06970    0.56500    1.000
    H191     H        0.82270    0.08650    0.61050    1.000
    C240     C        0.78030    0.04460    0.42700    1.000
    H192     H        0.77030    0.04040    0.35430    1.000
    Cu23     Cu       0.96905    0.20842    0.52740    1.000
    Cu24     Cu       0.78627    0.01152    0.75590    1.000
    N133     N        0.93610    0.17580    0.85460    1.000
    N134     N        0.95380    0.19740    0.68820    1.000
    N135     N        0.95620    0.22660    0.76500    1.000
    N136     N        0.84940    0.07810    0.97880    1.000
    N137     N        0.81310    0.03750    0.88490    1.000
    N138     N        0.79450    0.04790    0.98570    1.000
    N139     N        0.79850    0.07730    0.45710    1.000
    N140     N        0.79810    0.03630    0.59640    1.000
    N141     N        0.77840    0.02030    0.50750    1.000
    N142     N        0.87440    0.18590    0.34880    1.000
    N143     N        0.92510    0.21210    0.42680    1.000
    N144     N        0.92150    0.22480    0.31200    1.000
    C241     C        0.85310    0.86970    0.75100    1.000
    C242     C        0.85470    0.85530    0.86300    1.000
    H193     H        0.83860    0.86520    0.91910    1.000
    C243     C        0.88030    0.82620    0.89100    1.000
    H194     H        0.88220    0.81660    0.96420    1.000
    C244     C        0.90350    0.81190    0.79900    1.000
    H195     H        0.92050    0.79200    0.81190    1.000
    C245     C        0.90030    0.82810    0.69100    1.000
    C246     C        0.87470    0.85660    0.66500    1.000
    H196     H        0.87250    0.86620    0.59180    1.000
    C247     C        0.96300    0.80490    0.61200    1.000
    H197     H        0.97720    0.80640    0.67830    1.000
    C248     C        0.91790    0.80840    0.49300    1.000
    H198     H        0.89420    0.81280    0.46040    1.000
    C249     C        0.82170    0.93160    0.78900    1.000
    H199     H        0.83240    0.93620    0.86050    1.000
    C250     C        0.80710    0.90480    0.63000    1.000
    H200     H        0.80680    0.88770    0.56900    1.000
    C251     C        0.91430    0.91170    0.08400    1.000
    C252     C        0.87950    0.91380    0.14360    1.000
    H201     H        0.86940    0.89270    0.18090    1.000
    C253     C        0.86170    0.94740    0.14400    1.000
    C254     C        0.87610    0.97800    0.08900    1.000
    H202     H        0.86420    0.00150    0.09530    1.000
    C255     C        0.90930    0.97420    0.02300    1.000
    H203     H        0.91720    0.99360    0.97420    1.000
    C256     C        0.93010    0.94040    0.03200    1.000
    H204     H        0.95450    0.93850    0.00200    1.000
    C257     C        0.95900    0.86070    0.02100    1.000
    H205     H        0.96350    0.87100    0.94920    1.000
    C258     C        0.93870    0.85360    0.19100    1.000
    H206     H        0.92540    0.85810    0.25780    1.000
    C259     C        0.81970    0.94090    0.31500    1.000
    H207     H        0.83650    0.92730    0.36050    1.000
    C260     C        0.79460    0.96970    0.17700    1.000
    H208     H        0.79040    0.97970    0.10430    1.000
    Cu25     Cu       0.95842    0.78095    0.27740    1.000
    Cu26     Cu       0.76152    0.96373    0.50590    1.000
    N145     N        0.92580    0.81390    0.60460    1.000
    N146     N        0.94740    0.79620    0.43820    1.000
    N147     N        0.97660    0.79380    0.51500    1.000
    N148     N        0.82810    0.90060    0.72880    1.000
    N149     N        0.78750    0.93690    0.63490    1.000
    N150     N        0.79790    0.95550    0.73570    1.000
    N151     N        0.82730    0.95150    0.20710    1.000
    N152     N        0.78630    0.95190    0.34640    1.000
    N153     N        0.77030    0.97160    0.25750    1.000
    N154     N        0.93590    0.87560    0.09880    1.000
    N155     N        0.96210    0.82490    0.17680    1.000
    N156     N        0.97480    0.82850    0.06200    1.000
    C261     C        0.35310    0.36970    0.25100    1.000
    C262     C        0.35470    0.35530    0.36300    1.000
    H209     H        0.33860    0.36520    0.41910    1.000
    C263     C        0.38030    0.32620    0.39100    1.000
    H210     H        0.38220    0.31660    0.46420    1.000
    C264     C        0.40350    0.31190    0.29900    1.000
    H211     H        0.42050    0.29200    0.31190    1.000
    C265     C        0.40030    0.32810    0.19100    1.000
    C266     C        0.37470    0.35660    0.16500    1.000
    H212     H        0.37250    0.36620    0.09180    1.000
    C267     C        0.46300    0.30490    0.11200    1.000
    H213     H        0.47720    0.30640    0.17830    1.000
    C268     C        0.41790    0.30840    0.99300    1.000
    H214     H        0.39420    0.31280    0.96040    1.000
    C269     C        0.32170    0.43160    0.28900    1.000
    H215     H        0.33240    0.43620    0.36050    1.000
    C270     C        0.30710    0.40480    0.13000    1.000
    H216     H        0.30680    0.38770    0.06900    1.000
    C271     C        0.41430    0.41170    0.58400    1.000
    C272     C        0.37950    0.41380    0.64360    1.000
    H217     H        0.36940    0.39270    0.68090    1.000
    C273     C        0.36170    0.44740    0.64400    1.000
    C274     C        0.37610    0.47800    0.58900    1.000
    H218     H        0.36420    0.50150    0.59530    1.000
    C275     C        0.40930    0.47420    0.52300    1.000
    H219     H        0.41720    0.49360    0.47420    1.000
    C276     C        0.43010    0.44040    0.53200    1.000
    H220     H        0.45450    0.43850    0.50200    1.000
    C277     C        0.45900    0.36070    0.52100    1.000
    H221     H        0.46350    0.37100    0.44920    1.000
    C278     C        0.43870    0.35360    0.69100    1.000
    H222     H        0.42540    0.35810    0.75780    1.000
    C279     C        0.31970    0.44090    0.81500    1.000
    H223     H        0.33650    0.42730    0.86050    1.000
    C280     C        0.29460    0.46970    0.67700    1.000
    H224     H        0.29040    0.47970    0.60430    1.000
    Cu27     Cu       0.45842    0.28095    0.77740    1.000
    Cu28     Cu       0.26152    0.46373    0.00590    1.000
    N157     N        0.42580    0.31390    0.10460    1.000
    N158     N        0.44740    0.29620    0.93820    1.000
    N159     N        0.47660    0.29380    0.01500    1.000
    N160     N        0.32810    0.40060    0.22880    1.000
    N161     N        0.28750    0.43690    0.13490    1.000
    N162     N        0.29790    0.45550    0.23570    1.000
    N163     N        0.32730    0.45150    0.70710    1.000
    N164     N        0.28630    0.45190    0.84640    1.000
    N165     N        0.27030    0.47160    0.75750    1.000
    N166     N        0.43590    0.37560    0.59880    1.000
    N167     N        0.46210    0.32490    0.67680    1.000
    N168     N        0.47480    0.32850    0.56200    1.000
    C281     C        0.64690    0.13030    0.25100    1.000
    C282     C        0.64530    0.14470    0.36300    1.000
    H225     H        0.66140    0.13480    0.41910    1.000
    C283     C        0.61970    0.17380    0.39100    1.000
    H226     H        0.61780    0.18340    0.46420    1.000
    C284     C        0.59650    0.18810    0.29900    1.000
    H227     H        0.57950    0.20800    0.31190    1.000
    C285     C        0.59970    0.17190    0.19100    1.000
    C286     C        0.62530    0.14340    0.16500    1.000
    H228     H        0.62750    0.13380    0.09180    1.000
    C287     C        0.53700    0.19510    0.11200    1.000
    H229     H        0.52280    0.19360    0.17830    1.000
    C288     C        0.58210    0.19160    0.99300    1.000
    H230     H        0.60580    0.18720    0.96040    1.000
    C289     C        0.67830    0.06840    0.28900    1.000
    H231     H        0.66760    0.06380    0.36050    1.000
    C290     C        0.69290    0.09520    0.13000    1.000
    H232     H        0.69320    0.11230    0.06900    1.000
    C291     C        0.58570    0.08830    0.58400    1.000
    C292     C        0.62050    0.08620    0.64360    1.000
    H233     H        0.63060    0.10730    0.68090    1.000
    C293     C        0.63830    0.05260    0.64400    1.000
    C294     C        0.62390    0.02200    0.58900    1.000
    H234     H        0.63580    0.99850    0.59530    1.000
    C295     C        0.59070    0.02580    0.52300    1.000
    H235     H        0.58280    0.00640    0.47420    1.000
    C296     C        0.56990    0.05960    0.53200    1.000
    H236     H        0.54550    0.06150    0.50200    1.000
    C297     C        0.54100    0.13930    0.52100    1.000
    H237     H        0.53650    0.12900    0.44920    1.000
    C298     C        0.56130    0.14640    0.69100    1.000
    H238     H        0.57460    0.14190    0.75780    1.000
    C299     C        0.68030    0.05910    0.81500    1.000
    H239     H        0.66350    0.07270    0.86050    1.000
    C300     C        0.70540    0.03030    0.67700    1.000
    H240     H        0.70960    0.02030    0.60430    1.000
    Cu29     Cu       0.54158    0.21905    0.77740    1.000
    Cu30     Cu       0.73848    0.03627    0.00590    1.000
    N169     N        0.57420    0.18610    0.10460    1.000
    N170     N        0.55260    0.20380    0.93820    1.000
    N171     N        0.52340    0.20620    0.01500    1.000
    N172     N        0.67190    0.09940    0.22880    1.000
    N173     N        0.71250    0.06310    0.13490    1.000
    N174     N        0.70210    0.04450    0.23570    1.000
    N175     N        0.67270    0.04850    0.70710    1.000
    N176     N        0.71370    0.04810    0.84640    1.000
    N177     N        0.72970    0.02840    0.75750    1.000
    N178     N        0.56410    0.12440    0.59880    1.000
    N179     N        0.53790    0.17510    0.67680    1.000
    N180     N        0.52520    0.17150    0.56200    1.000
    C301     C        0.14690    0.63030    0.75100    1.000
    C302     C        0.14530    0.64470    0.86300    1.000
    H241     H        0.16140    0.63480    0.91910    1.000
    C303     C        0.11970    0.67380    0.89100    1.000
    H242     H        0.11780    0.68340    0.96420    1.000
    C304     C        0.09650    0.68810    0.79900    1.000
    H243     H        0.07950    0.70800    0.81190    1.000
    C305     C        0.09970    0.67190    0.69100    1.000
    C306     C        0.12530    0.64340    0.66500    1.000
    H244     H        0.12750    0.63380    0.59180    1.000
    C307     C        0.03700    0.69510    0.61200    1.000
    H245     H        0.02280    0.69360    0.67830    1.000
    C308     C        0.08210    0.69160    0.49300    1.000
    H246     H        0.10580    0.68720    0.46040    1.000
    C309     C        0.17830    0.56840    0.78900    1.000
    H247     H        0.16760    0.56380    0.86050    1.000
    C310     C        0.19290    0.59520    0.63000    1.000
    H248     H        0.19320    0.61230    0.56900    1.000
    C311     C        0.08570    0.58830    0.08400    1.000
    C312     C        0.12050    0.58620    0.14360    1.000
    H249     H        0.13060    0.60730    0.18090    1.000
    C313     C        0.13830    0.55260    0.14400    1.000
    C314     C        0.12390    0.52200    0.08900    1.000
    H250     H        0.13580    0.49850    0.09530    1.000
    C315     C        0.09070    0.52580    0.02300    1.000
    H251     H        0.08280    0.50640    0.97420    1.000
    C316     C        0.06990    0.55960    0.03200    1.000
    H252     H        0.04550    0.56150    0.00200    1.000
    C317     C        0.04100    0.63930    0.02100    1.000
    H253     H        0.03650    0.62900    0.94920    1.000
    C318     C        0.06130    0.64640    0.19100    1.000
    H254     H        0.07460    0.64190    0.25780    1.000
    C319     C        0.18030    0.55910    0.31500    1.000
    H255     H        0.16350    0.57270    0.36050    1.000
    C320     C        0.20540    0.53030    0.17700    1.000
    H256     H        0.20960    0.52030    0.10430    1.000
    Cu31     Cu       0.04158    0.71905    0.27740    1.000
    Cu32     Cu       0.23848    0.53627    0.50590    1.000
    N181     N        0.07420    0.68610    0.60460    1.000
    N182     N        0.05260    0.70380    0.43820    1.000
    N183     N        0.02340    0.70620    0.51500    1.000
    N184     N        0.17190    0.59940    0.72880    1.000
    N185     N        0.21250    0.56310    0.63490    1.000
    N186     N        0.20210    0.54450    0.73570    1.000
    N187     N        0.17270    0.54850    0.20710    1.000
    N188     N        0.21370    0.54810    0.34640    1.000
    N189     N        0.22970    0.52840    0.25750    1.000
    N190     N        0.06410    0.62440    0.09880    1.000
    N191     N        0.03790    0.67510    0.17680    1.000
    N192     N        0.02520    0.67150    0.06200    1.000
