# CIF file generated by openbabel 3.1.0, see https://openbabel.org
data_I
_chemical_name_common 'image0'
_cell_length_a 22.8156
_cell_length_b 6.9955
_cell_length_c 14.4043
_cell_angle_alpha 90
_cell_angle_beta 106.694
_cell_angle_gamma 90
_space_group_name_H-M_alt 'P 1'
_space_group_name_Hall 'P 1'
loop_
    _symmetry_equiv_pos_as_xyz
    x,y,z
loop_
    _atom_site_label
    _atom_site_type_symbol
    _atom_site_fract_x
    _atom_site_fract_y
    _atom_site_fract_z
    _atom_site_occupancy
    Cd1      Cd       0.91146    0.97942    0.69182    1.000
    O1       O        0.59160    0.50920    0.12910    1.000
    O2       O        0.93760    0.02650    0.10380    1.000
    O3       O        0.92880    0.90520    0.54100    1.000
    C1       C        0.94860    0.97520    0.18920    1.000
    N1       N        0.74870    0.43950    0.15020    1.000
    O4       O        0.69950    0.17480    0.18010    1.000
    C2       C        0.91560    0.99470    0.34310    1.000
    H1       H        0.95190    0.93500    0.37690    1.000
    O5       O        0.99440    0.87220    0.23260    1.000
    O6       O        0.67050    0.55990    0.25600    1.000
    C3       C        0.80750    0.17640    0.24190    1.000
    C4       C        0.88510    0.01110    0.49660    1.000
    C5       C        0.64790    0.53820    0.16690    1.000
    C6       C        0.69040    0.53270    0.10280    1.000
    H2       H        0.67030    0.47010    0.04100    1.000
    C7       C        0.90450    0.03530    0.24480    1.000
    O7       O        0.85230    0.08760    0.54010    1.000
    C8       C        0.85110    0.12820    0.19490    1.000
    H3       H        0.84430    0.15850    0.12980    1.000
    C9       C        0.87320    0.04260    0.39050    1.000
    C10      C        0.74690    0.26210    0.18910    1.000
    C11      C        0.81840    0.13270    0.33870    1.000
    H4       H        0.78920    0.16310    0.37010    1.000
    C12      C        0.71200    0.73410    0.08540    1.000
    H5       H        0.68610    0.78670    0.02520    1.000
    H6       H        0.71090    0.81900    0.13810    1.000
    C13      C        0.80110    0.56470    0.16210    1.000
    H7       H        0.83610    0.49580    0.15360    1.000
    H8       H        0.81240    0.62610    0.22510    1.000
    C14      C        0.77650    0.70960    0.08040    1.000
    H9       H        0.79910    0.82890    0.09300    1.000
    H10      H        0.77750    0.65920    0.01820    1.000
    C15      C        0.55370    0.09800    0.99350    1.000
    C16      C        0.55980    0.94300    0.04800    1.000
    N2       N        0.50610    0.20300    0.03820    1.000
    N3       N        0.50710    0.84900    0.06500    1.000
    C17      C        0.55010    0.92600    0.97270    1.000
    Cd2      Cd       0.41146    0.47942    0.69182    1.000
    O8       O        0.09160    0.00920    0.12910    1.000
    O9       O        0.43760    0.52650    0.10380    1.000
    O10      O        0.42880    0.40520    0.54100    1.000
    C18      C        0.44860    0.47520    0.18920    1.000
    N4       N        0.24870    0.93950    0.15020    1.000
    O11      O        0.19950    0.67480    0.18010    1.000
    C19      C        0.41560    0.49470    0.34310    1.000
    H11      H        0.45190    0.43500    0.37690    1.000
    O12      O        0.49440    0.37220    0.23260    1.000
    O13      O        0.17050    0.05990    0.25600    1.000
    C20      C        0.30750    0.67640    0.24190    1.000
    C21      C        0.38510    0.51110    0.49660    1.000
    C22      C        0.14790    0.03820    0.16690    1.000
    C23      C        0.19040    0.03270    0.10280    1.000
    H12      H        0.17030    0.97010    0.04100    1.000
    C24      C        0.40450    0.53530    0.24480    1.000
    O14      O        0.35230    0.58760    0.54010    1.000
    C25      C        0.35110    0.62820    0.19490    1.000
    H13      H        0.34430    0.65850    0.12980    1.000
    C26      C        0.37320    0.54260    0.39050    1.000
    C27      C        0.24690    0.76210    0.18910    1.000
    C28      C        0.31840    0.63270    0.33870    1.000
    H14      H        0.28920    0.66310    0.37010    1.000
    C29      C        0.21200    0.23410    0.08540    1.000
    H15      H        0.18610    0.28670    0.02520    1.000
    H16      H        0.21090    0.31900    0.13810    1.000
    C30      C        0.30110    0.06470    0.16210    1.000
    H17      H        0.33610    0.99580    0.15360    1.000
    H18      H        0.31240    0.12610    0.22510    1.000
    C31      C        0.27650    0.20960    0.08040    1.000
    H19      H        0.29910    0.32890    0.09300    1.000
    H20      H        0.27750    0.15920    0.01820    1.000
    C32      C        0.05370    0.59800    0.99350    1.000
    C33      C        0.05980    0.44300    0.04800    1.000
    N5       N        0.00610    0.70300    0.03820    1.000
    N6       N        0.00710    0.34900    0.06500    1.000
    C34      C        0.05010    0.42600    0.97270    1.000
    Cd3      Cd       0.08854    0.97942    0.30818    1.000
    O15      O        0.40840    0.50920    0.87090    1.000
    O16      O        0.06240    0.02650    0.89620    1.000
    O17      O        0.07120    0.90520    0.45900    1.000
    C35      C        0.05140    0.97520    0.81080    1.000
    N7       N        0.25130    0.43950    0.84980    1.000
    O18      O        0.30050    0.17480    0.81990    1.000
    C36      C        0.08440    0.99470    0.65690    1.000
    H21      H        0.04810    0.93500    0.62310    1.000
    O19      O        0.00560    0.87220    0.76740    1.000
    O20      O        0.32950    0.55990    0.74400    1.000
    C37      C        0.19250    0.17640    0.75810    1.000
    C38      C        0.11490    0.01110    0.50340    1.000
    C39      C        0.35210    0.53820    0.83310    1.000
    C40      C        0.30960    0.53270    0.89720    1.000
    H22      H        0.32970    0.47010    0.95900    1.000
    C41      C        0.09550    0.03530    0.75520    1.000
    O21      O        0.14770    0.08760    0.45990    1.000
    C42      C        0.14890    0.12820    0.80510    1.000
    H23      H        0.15570    0.15850    0.87020    1.000
    C43      C        0.12680    0.04260    0.60950    1.000
    C44      C        0.25310    0.26210    0.81090    1.000
    C45      C        0.18160    0.13270    0.66130    1.000
    H24      H        0.21080    0.16310    0.62990    1.000
    C46      C        0.28800    0.73410    0.91460    1.000
    H25      H        0.31390    0.78670    0.97480    1.000
    H26      H        0.28910    0.81900    0.86190    1.000
    C47      C        0.19890    0.56470    0.83790    1.000
    H27      H        0.16390    0.49580    0.84640    1.000
    H28      H        0.18760    0.62610    0.77490    1.000
    C48      C        0.22350    0.70960    0.91960    1.000
    H29      H        0.20090    0.82890    0.90700    1.000
    H30      H        0.22250    0.65920    0.98180    1.000
    C49      C        0.44630    0.09800    0.00650    1.000
    C50      C        0.44020    0.94300    0.95200    1.000
    N8       N        0.49390    0.20300    0.96180    1.000
    N9       N        0.49290    0.84900    0.93500    1.000
    C51      C        0.44990    0.92600    0.02730    1.000
    Cd4      Cd       0.58854    0.47942    0.30818    1.000
    O22      O        0.90840    0.00920    0.87090    1.000
    O23      O        0.56240    0.52650    0.89620    1.000
    O24      O        0.57120    0.40520    0.45900    1.000
    C52      C        0.55140    0.47520    0.81080    1.000
    N10      N        0.75130    0.93950    0.84980    1.000
    O25      O        0.80050    0.67480    0.81990    1.000
    C53      C        0.58440    0.49470    0.65690    1.000
    H31      H        0.54810    0.43500    0.62310    1.000
    O26      O        0.50560    0.37220    0.76740    1.000
    O27      O        0.82950    0.05990    0.74400    1.000
    C54      C        0.69250    0.67640    0.75810    1.000
    C55      C        0.61490    0.51110    0.50340    1.000
    C56      C        0.85210    0.03820    0.83310    1.000
    C57      C        0.80960    0.03270    0.89720    1.000
    H32      H        0.82970    0.97010    0.95900    1.000
    C58      C        0.59550    0.53530    0.75520    1.000
    O28      O        0.64770    0.58760    0.45990    1.000
    C59      C        0.64890    0.62820    0.80510    1.000
    H33      H        0.65570    0.65850    0.87020    1.000
    C60      C        0.62680    0.54260    0.60950    1.000
    C61      C        0.75310    0.76210    0.81090    1.000
    C62      C        0.68160    0.63270    0.66130    1.000
    H34      H        0.71080    0.66310    0.62990    1.000
    C63      C        0.78800    0.23410    0.91460    1.000
    H35      H        0.81390    0.28670    0.97480    1.000
    H36      H        0.78910    0.31900    0.86190    1.000
    C64      C        0.69890    0.06470    0.83790    1.000
    H37      H        0.66390    0.99580    0.84640    1.000
    H38      H        0.68760    0.12610    0.77490    1.000
    C65      C        0.72350    0.20960    0.91960    1.000
    H39      H        0.70090    0.32890    0.90700    1.000
    H40      H        0.72250    0.15920    0.98180    1.000
    C66      C        0.94630    0.59800    0.00650    1.000
    C67      C        0.94020    0.44300    0.95200    1.000
    N11      N        0.99390    0.70300    0.96180    1.000
    N12      N        0.99290    0.34900    0.93500    1.000
    C68      C        0.94990    0.42600    0.02730    1.000
    Cd5      Cd       0.50000    0.51178    0.00000    1.000
    N13      N        0.50000    0.81000    0.00000    1.000
    Cd6      Cd       0.00000    0.01178    0.00000    1.000
    N14      N        0.00000    0.31000    0.00000    1.000
