# CIF file generated by openbabel 3.1.0, see https://openbabel.org
data_I
_chemical_name_common 'image0'
_cell_length_a 12.815
_cell_length_b 15.979
_cell_length_c 6.7705
_cell_angle_alpha 90
_cell_angle_beta 90
_cell_angle_gamma 90
_space_group_name_H-M_alt 'P 1'
_space_group_name_Hall 'P 1'
loop_
    _symmetry_equiv_pos_as_xyz
    x,y,z
loop_
    _atom_site_label
    _atom_site_type_symbol
    _atom_site_fract_x
    _atom_site_fract_y
    _atom_site_fract_z
    _atom_site_occupancy
    N1       N        0.50000    0.29050    0.95800    1.000
    C1       C        0.50000    0.36000    0.85170    1.000
    C2       C        0.50000    0.21900    0.85220    1.000
    N2       N        0.00000    0.79050    0.95800    1.000
    C3       C        0.00000    0.86000    0.85170    1.000
    C4       C        0.00000    0.71900    0.85220    1.000
    N3       N        0.50000    0.29050    0.54200    1.000
    C5       C        0.50000    0.36000    0.64830    1.000
    C6       C        0.50000    0.21900    0.64780    1.000
    N4       N        0.00000    0.79050    0.54200    1.000
    C7       C        0.00000    0.86000    0.64830    1.000
    C8       C        0.00000    0.71900    0.64780    1.000
    Fe1      Fe       0.50000    0.28920    0.25000    1.000
    Fe2      Fe       0.00000    0.78920    0.25000    1.000
    Ag1      Ag       0.25260    0.03819    0.25000    1.000
    N5       N        0.39550    0.20430    0.25000    1.000
    N6       N        0.10900    0.87700    0.25000    1.000
    C9       C        0.33600    0.15000    0.25000    1.000
    C10      C        0.16200    0.93400    0.25000    1.000
    Ag2      Ag       0.75260    0.53819    0.25000    1.000
    N7       N        0.89550    0.70430    0.25000    1.000
    N8       N        0.60900    0.37700    0.25000    1.000
    C11      C        0.83600    0.65000    0.25000    1.000
    C12      C        0.66200    0.43400    0.25000    1.000
    Ag3      Ag       0.74740    0.03819    0.25000    1.000
    N9       N        0.60450    0.20430    0.25000    1.000
    N10      N        0.89100    0.87700    0.25000    1.000
    C13      C        0.66400    0.15000    0.25000    1.000
    C14      C        0.83800    0.93400    0.25000    1.000
    Ag4      Ag       0.24740    0.53819    0.25000    1.000
    N11      N        0.10450    0.70430    0.25000    1.000
    N12      N        0.39100    0.37700    0.25000    1.000
    C15      C        0.16400    0.65000    0.25000    1.000
    C16      C        0.33800    0.43400    0.25000    1.000
    N13      N        0.50000    0.70950    0.45800    1.000
    C17      C        0.50000    0.64000    0.35170    1.000
    C18      C        0.50000    0.78100    0.35220    1.000
    N14      N        0.00000    0.20950    0.45800    1.000
    C19      C        0.00000    0.14000    0.35170    1.000
    C20      C        0.00000    0.28100    0.35220    1.000
    N15      N        0.50000    0.70950    0.04200    1.000
    C21      C        0.50000    0.64000    0.14830    1.000
    C22      C        0.50000    0.78100    0.14780    1.000
    N16      N        0.00000    0.20950    0.04200    1.000
    C23      C        0.00000    0.14000    0.14830    1.000
    C24      C        0.00000    0.28100    0.14780    1.000
    Fe3      Fe       0.50000    0.71080    0.75000    1.000
    Fe4      Fe       0.00000    0.21080    0.75000    1.000
    Ag5      Ag       0.74740    0.96181    0.75000    1.000
    N17      N        0.60450    0.79570    0.75000    1.000
    N18      N        0.89100    0.12300    0.75000    1.000
    C25      C        0.66400    0.85000    0.75000    1.000
    C26      C        0.83800    0.06600    0.75000    1.000
    Ag6      Ag       0.24740    0.46181    0.75000    1.000
    N19      N        0.10450    0.29570    0.75000    1.000
    N20      N        0.39100    0.62300    0.75000    1.000
    C27      C        0.16400    0.35000    0.75000    1.000
    C28      C        0.33800    0.56600    0.75000    1.000
    Ag7      Ag       0.25260    0.96181    0.75000    1.000
    N21      N        0.39550    0.79570    0.75000    1.000
    N22      N        0.10900    0.12300    0.75000    1.000
    C29      C        0.33600    0.85000    0.75000    1.000
    C30      C        0.16200    0.06600    0.75000    1.000
    Ag8      Ag       0.75260    0.46181    0.75000    1.000
    N23      N        0.89550    0.29570    0.75000    1.000
    N24      N        0.60900    0.62300    0.75000    1.000
    C31      C        0.83600    0.35000    0.75000    1.000
    C32      C        0.66200    0.56600    0.75000    1.000
