# CIF file generated by openbabel 3.1.0, see https://openbabel.org
data_I
_chemical_name_common 'image0'
_cell_length_a 9.074
_cell_length_b 9.23
_cell_length_c 9.309
_cell_angle_alpha 76.446
_cell_angle_beta 87.343
_cell_angle_gamma 89.388
_space_group_name_H-M_alt 'P 1'
_space_group_name_Hall 'P 1'
loop_
    _symmetry_equiv_pos_as_xyz
    x,y,z
loop_
    _atom_site_label
    _atom_site_type_symbol
    _atom_site_fract_x
    _atom_site_fract_y
    _atom_site_fract_z
    _atom_site_occupancy
    P1       P        0.18744    0.38185    0.90258    1.000
    P2       P        0.61755    0.37170    0.67634    1.000
    P3       P        0.64606    0.16819    0.14566    1.000
    Al1      Al       0.83934    0.37467    0.92586    1.000
    Al2      Al       0.43433    0.13220    0.91193    1.000
    Al3      Al       0.61903    0.39099    0.34189    1.000
    F1       F        0.39419    0.98639    0.08364    1.000
    O1       O        0.50263    0.25482    0.73720    1.000
    O2       O        0.65206    0.99914    0.18779    1.000
    O3       O        0.26206    0.23280    0.92873    1.000
    O4       O        0.53321    0.23326    0.03311    1.000
    O5       O        0.61790    0.22370    0.28875    1.000
    O6       O        0.75284    0.35730    0.76943    1.000
    O7       O        0.02464    0.36180    0.87730    1.000
    O8       O        0.67540    0.35510    0.52280    1.000
    O9       O        0.19800    0.45250    0.03565    1.000
    O10      O        0.79995    0.23040    0.08065    1.000
    O11      O        0.55445    0.52850    0.66190    1.000
    O12      O        0.25030    0.49010    0.76322    1.000
    P4       P        0.81256    0.61815    0.09742    1.000
    P5       P        0.38245    0.62830    0.32366    1.000
    P6       P        0.35394    0.83181    0.85434    1.000
    Al4      Al       0.16066    0.62533    0.07414    1.000
    Al5      Al       0.56567    0.86780    0.08807    1.000
    Al6      Al       0.38097    0.60901    0.65811    1.000
    F2       F        0.60581    0.01361    0.91636    1.000
    O13      O        0.49737    0.74518    0.26280    1.000
    O14      O        0.34794    0.00086    0.81221    1.000
    O15      O        0.73794    0.76720    0.07127    1.000
    O16      O        0.46679    0.76674    0.96689    1.000
    O17      O        0.38210    0.77630    0.71125    1.000
    O18      O        0.24716    0.64270    0.23057    1.000
    O19      O        0.97536    0.63820    0.12270    1.000
    O20      O        0.32460    0.64490    0.47720    1.000
    O21      O        0.80200    0.54750    0.96435    1.000
    O22      O        0.20005    0.76960    0.91935    1.000
    O23      O        0.44555    0.47150    0.33810    1.000
    O24      O        0.74970    0.50990    0.23678    1.000
