# CIF file generated by openbabel 3.1.0, see https://openbabel.org
data_I
_chemical_name_common 'image0'
_cell_length_a 24.529
_cell_length_b 9.3582
_cell_length_c 10.3822
_cell_angle_alpha 90
_cell_angle_beta 97.236
_cell_angle_gamma 90
_space_group_name_H-M_alt 'P 1'
_space_group_name_Hall 'P 1'
loop_
    _symmetry_equiv_pos_as_xyz
    x,y,z
loop_
    _atom_site_label
    _atom_site_type_symbol
    _atom_site_fract_x
    _atom_site_fract_y
    _atom_site_fract_z
    _atom_site_occupancy
    C1       C        0.23282    0.29570    0.53680    1.000
    C2       C        0.17809    0.32120    0.49290    1.000
    H1       H        0.16240    0.28230    0.41450    1.000
    C3       C        0.14690    0.40380    0.56490    1.000
    C4       C        0.17180    0.46050    0.68020    1.000
    H2       H        0.15190    0.51540    0.73250    1.000
    C5       C        0.22720    0.43350    0.71640    1.000
    H3       H        0.24420    0.47430    0.79280    1.000
    C6       C        0.08699    0.43040    0.51980    1.000
    N1       N        0.25749    0.35220    0.64740    1.000
    N2       N        0.98410    0.18270    0.25400    1.000
    O1       O        0.07093    0.40220    0.40460    1.000
    O2       O        0.05825    0.47780    0.59860    1.000
    O3       O        0.97110    0.24690    0.31840    1.000
    C7       C        0.73282    0.79570    0.53680    1.000
    C8       C        0.67809    0.82120    0.49290    1.000
    H4       H        0.66240    0.78230    0.41450    1.000
    C9       C        0.64690    0.90380    0.56490    1.000
    C10      C        0.67180    0.96050    0.68020    1.000
    H5       H        0.65190    0.01540    0.73250    1.000
    C11      C        0.72720    0.93350    0.71640    1.000
    H6       H        0.74420    0.97430    0.79280    1.000
    C12      C        0.58699    0.93040    0.51980    1.000
    N3       N        0.75749    0.85220    0.64740    1.000
    N4       N        0.48410    0.68270    0.25400    1.000
    O4       O        0.57093    0.90220    0.40460    1.000
    O5       O        0.55825    0.97780    0.59860    1.000
    O6       O        0.47110    0.74690    0.31840    1.000
    C13      C        0.76718    0.29570    0.96320    1.000
    C14      C        0.82191    0.32120    0.00710    1.000
    H7       H        0.83760    0.28230    0.08550    1.000
    C15      C        0.85310    0.40380    0.93510    1.000
    C16      C        0.82820    0.46050    0.81980    1.000
    H8       H        0.84810    0.51540    0.76750    1.000
    C17      C        0.77280    0.43350    0.78360    1.000
    H9       H        0.75580    0.47430    0.70720    1.000
    C18      C        0.91301    0.43040    0.98020    1.000
    N5       N        0.74251    0.35220    0.85260    1.000
    N6       N        0.01590    0.18270    0.24600    1.000
    O7       O        0.92907    0.40220    0.09540    1.000
    O8       O        0.94175    0.47780    0.90140    1.000
    O9       O        0.02890    0.24690    0.18160    1.000
    C19      C        0.26718    0.79570    0.96320    1.000
    C20      C        0.32191    0.82120    0.00710    1.000
    H10      H        0.33760    0.78230    0.08550    1.000
    C21      C        0.35310    0.90380    0.93510    1.000
    C22      C        0.32820    0.96050    0.81980    1.000
    H11      H        0.34810    0.01540    0.76750    1.000
    C23      C        0.27280    0.93350    0.78360    1.000
    H12      H        0.25580    0.97430    0.70720    1.000
    C24      C        0.41301    0.93040    0.98020    1.000
    N7       N        0.24251    0.85220    0.85260    1.000
    N8       N        0.51590    0.68270    0.24600    1.000
    O10      O        0.42907    0.90220    0.09540    1.000
    O11      O        0.44175    0.97780    0.90140    1.000
    O12      O        0.52890    0.74690    0.18160    1.000
    C25      C        0.76718    0.70430    0.46320    1.000
    C26      C        0.82191    0.67880    0.50710    1.000
    H13      H        0.83760    0.71770    0.58550    1.000
    C27      C        0.85310    0.59620    0.43510    1.000
    C28      C        0.82820    0.53950    0.31980    1.000
    H14      H        0.84810    0.48460    0.26750    1.000
    C29      C        0.77280    0.56650    0.28360    1.000
    H15      H        0.75580    0.52570    0.20720    1.000
    C30      C        0.91301    0.56960    0.48020    1.000
    N9       N        0.74251    0.64780    0.35260    1.000
    N10      N        0.01590    0.81730    0.74600    1.000
    O13      O        0.92907    0.59780    0.59540    1.000
    O14      O        0.94175    0.52220    0.40140    1.000
    O15      O        0.02890    0.75310    0.68160    1.000
    C31      C        0.26718    0.20430    0.46320    1.000
    C32      C        0.32191    0.17880    0.50710    1.000
    H16      H        0.33760    0.21770    0.58550    1.000
    C33      C        0.35310    0.09620    0.43510    1.000
    C34      C        0.32820    0.03950    0.31980    1.000
    H17      H        0.34810    0.98460    0.26750    1.000
    C35      C        0.27280    0.06650    0.28360    1.000
    H18      H        0.25580    0.02570    0.20720    1.000
    C36      C        0.41301    0.06960    0.48020    1.000
    N11      N        0.24251    0.14780    0.35260    1.000
    N12      N        0.51590    0.31730    0.74600    1.000
    O16      O        0.42907    0.09780    0.59540    1.000
    O17      O        0.44175    0.02220    0.40140    1.000
    O18      O        0.52890    0.25310    0.68160    1.000
    C37      C        0.23282    0.70430    0.03680    1.000
    C38      C        0.17809    0.67880    0.99290    1.000
    H19      H        0.16240    0.71770    0.91450    1.000
    C39      C        0.14690    0.59620    0.06490    1.000
    C40      C        0.17180    0.53950    0.18020    1.000
    H20      H        0.15190    0.48460    0.23250    1.000
    C41      C        0.22720    0.56650    0.21640    1.000
    H21      H        0.24420    0.52570    0.29280    1.000
    C42      C        0.08699    0.56960    0.01980    1.000
    N13      N        0.25749    0.64780    0.14740    1.000
    N14      N        0.98410    0.81730    0.75400    1.000
    O19      O        0.07093    0.59780    0.90460    1.000
    O20      O        0.05825    0.52220    0.09860    1.000
    O21      O        0.97110    0.75310    0.81840    1.000
    C43      C        0.73282    0.20430    0.03680    1.000
    C44      C        0.67809    0.17880    0.99290    1.000
    H22      H        0.66240    0.21770    0.91450    1.000
    C45      C        0.64690    0.09620    0.06490    1.000
    C46      C        0.67180    0.03950    0.18020    1.000
    H23      H        0.65190    0.98460    0.23250    1.000
    C47      C        0.72720    0.06650    0.21640    1.000
    H24      H        0.74420    0.02570    0.29280    1.000
    C48      C        0.58699    0.06960    0.01980    1.000
    N15      N        0.75749    0.14780    0.14740    1.000
    N16      N        0.48410    0.31730    0.75400    1.000
    O22      O        0.57093    0.09780    0.90460    1.000
    O23      O        0.55825    0.02220    0.09860    1.000
    O24      O        0.47110    0.25310    0.81840    1.000
    Gd1      Gd       0.00000    0.48629    0.25000    1.000
    O25      O        0.00000    0.04990    0.25000    1.000
    Gd2      Gd       0.50000    0.98629    0.25000    1.000
    O26      O        0.50000    0.54990    0.25000    1.000
    Gd3      Gd       0.00000    0.51371    0.75000    1.000
    O27      O        0.00000    0.95010    0.75000    1.000
    Gd4      Gd       0.50000    0.01371    0.75000    1.000
    O28      O        0.50000    0.45010    0.75000    1.000
