# CIF file generated by openbabel 3.1.0, see https://openbabel.org
data_I
_chemical_name_common 'image0'
_cell_length_a 27.881
_cell_length_b 14.252
_cell_length_c 24.059
_cell_angle_alpha 90
_cell_angle_beta 111.799
_cell_angle_gamma 90
_space_group_name_H-M_alt 'P 1'
_space_group_name_Hall 'P 1'
loop_
    _symmetry_equiv_pos_as_xyz
    x,y,z
loop_
    _atom_site_label
    _atom_site_type_symbol
    _atom_site_fract_x
    _atom_site_fract_y
    _atom_site_fract_z
    _atom_site_occupancy
    Ag1      Ag       0.25384    0.71701    0.22063    1.000
    P1       P        0.24917    0.55883    0.17985    1.000
    P2       P        0.24557    0.36946    0.32564    1.000
    N1       N        0.33826    0.70840    0.29636    1.000
    N2       N        0.41923    0.66590    0.34000    1.000
    N3       N        0.16750    0.69890    0.34376    1.000
    N4       N        0.19953    0.72820    0.27488    1.000
    C1       C        0.26287    0.46440    0.23554    1.000
    H1       H        0.26060    0.40460    0.21540    1.000
    H2       H        0.29800    0.47130    0.26400    1.000
    C2       C        0.22672    0.46290    0.26936    1.000
    H3       H        0.19160    0.45240    0.24160    1.000
    H4       H        0.22790    0.52290    0.28880    1.000
    C3       C        0.29870    0.54220    0.14815    1.000
    C4       C        0.33480    0.47090    0.16480    1.000
    H5       H        0.33280    0.42440    0.19100    1.000
    C5       C        0.37370    0.46880    0.14230    1.000
    H6       H        0.39870    0.42200    0.15480    1.000
    C6       C        0.37620    0.53450    0.10210    1.000
    H7       H        0.40160    0.53060    0.08580    1.000
    C7       C        0.34130    0.60510    0.08620    1.000
    H8       H        0.34340    0.65070    0.05950    1.000
    C8       C        0.30260    0.61040    0.10910    1.000
    H9       H        0.27930    0.65990    0.09820    1.000
    C9       C        0.18966    0.52260    0.12047    1.000
    C10      C        0.14540    0.56950    0.11350    1.000
    H10      H        0.14640    0.61940    0.13880    1.000
    C11      C        0.09880    0.54440    0.06940    1.000
    H11      H        0.06890    0.57790    0.06450    1.000
    C12      C        0.09740    0.46930    0.03290    1.000
    H12      H        0.06610    0.45110    0.00380    1.000
    C13      C        0.14090    0.42180    0.03890    1.000
    H13      H        0.13970    0.37140    0.01390    1.000
    C14      C        0.18710    0.44850    0.08240    1.000
    H14      H        0.21710    0.41610    0.08620    1.000
    C15      C        0.20030    0.38030    0.36360    1.000
    C16      C        0.14860    0.37270    0.33070    1.000
    H15      H        0.13760    0.36600    0.28930    1.000
    C17      C        0.11240    0.37460    0.35670    1.000
    H16      H        0.07740    0.36870    0.33350    1.000
    C18      C        0.12850    0.38520    0.41700    1.000
    H17      H        0.10430    0.38800    0.43510    1.000
    C19      C        0.18070    0.39180    0.45160    1.000
    H18      H        0.19140    0.39760    0.49300    1.000
    C20      C        0.21640    0.39000    0.42520    1.000
    H19      H        0.25130    0.39510    0.44850    1.000
    C21      C        0.30570    0.40870    0.38000    1.000
    C22      C        0.34210    0.34260    0.40970    1.000
    H20      H        0.33460    0.27940    0.40130    1.000
    C23      C        0.38990    0.36790    0.45180    1.000
    H21      H        0.41420    0.32240    0.47140    1.000
    C24      C        0.40070    0.46260    0.46420    1.000
    H22      H        0.43240    0.48020    0.49260    1.000
    C25      C        0.36640    0.52810    0.43630    1.000
    H23      H        0.37420    0.59120    0.44490    1.000
    C26      C        0.31890    0.50180    0.39390    1.000
    H24      H        0.29530    0.54830    0.37430    1.000
    C27      C        0.37570    0.65450    0.29380    1.000
    H25      H        0.37190    0.61290    0.26260    1.000
    C28      C        0.35990    0.75650    0.34740    1.000
    H26      H        0.34290    0.80090    0.36160    1.000
    C29      C        0.40960    0.73210    0.37520    1.000
    H27      H        0.43270    0.75570    0.41130    1.000
    C30      C        0.46750    0.61590    0.35240    1.000
    H28      H        0.46360    0.55180    0.36360    1.000
    H29      H        0.49440    0.64530    0.38590    1.000
    C31      C        0.48380    0.61490    0.29820    1.000
    C32      C        0.49290    0.69830    0.27370    1.000
    H30      H        0.48910    0.75510    0.29060    1.000
    C33      C        0.49250    0.53480    0.27380    1.000
    H31      H        0.48820    0.47770    0.29000    1.000
    C34      C        0.20700    0.80160    0.46970    1.000
    H32      H        0.17810    0.83800    0.44940    1.000
    C35      C        0.25180    0.65910    0.48310    1.000
    H33      H        0.25380    0.59720    0.47190    1.000
    C36      C        0.20850    0.71090    0.45320    1.000
    C37      C        0.16520    0.66890    0.40190    1.000
    H34      H        0.16720    0.60100    0.40470    1.000
    H35      H        0.13250    0.68820    0.40380    1.000
    C38      C        0.21045    0.70710    0.33160    1.000
    H36      H        0.24370    0.69890    0.35960    1.000
    C39      C        0.12675    0.71770    0.29200    1.000
    H37      H        0.09190    0.71800    0.28660    1.000
    C40      C        0.14670    0.73560    0.25090    1.000
    H38      H        0.12750    0.75100    0.21130    1.000
    Ag2      Ag       0.75384    0.21701    0.22063    1.000
    P3       P        0.74917    0.05883    0.17985    1.000
    P4       P        0.74557    0.86946    0.32564    1.000
    N5       N        0.83826    0.20840    0.29636    1.000
    N6       N        0.91923    0.16590    0.34000    1.000
    N7       N        0.66750    0.19890    0.34376    1.000
    N8       N        0.69953    0.22820    0.27488    1.000
    C41      C        0.76287    0.96440    0.23554    1.000
    H39      H        0.76060    0.90460    0.21540    1.000
    H40      H        0.79800    0.97130    0.26400    1.000
    C42      C        0.72672    0.96290    0.26936    1.000
    H41      H        0.69160    0.95240    0.24160    1.000
    H42      H        0.72790    0.02290    0.28880    1.000
    C43      C        0.79870    0.04220    0.14815    1.000
    C44      C        0.83480    0.97090    0.16480    1.000
    H43      H        0.83280    0.92440    0.19100    1.000
    C45      C        0.87370    0.96880    0.14230    1.000
    H44      H        0.89870    0.92200    0.15480    1.000
    C46      C        0.87620    0.03450    0.10210    1.000
    H45      H        0.90160    0.03060    0.08580    1.000
    C47      C        0.84130    0.10510    0.08620    1.000
    H46      H        0.84340    0.15070    0.05950    1.000
    C48      C        0.80260    0.11040    0.10910    1.000
    H47      H        0.77930    0.15990    0.09820    1.000
    C49      C        0.68966    0.02260    0.12047    1.000
    C50      C        0.64540    0.06950    0.11350    1.000
    H48      H        0.64640    0.11940    0.13880    1.000
    C51      C        0.59880    0.04440    0.06940    1.000
    H49      H        0.56890    0.07790    0.06450    1.000
    C52      C        0.59740    0.96930    0.03290    1.000
    H50      H        0.56610    0.95110    0.00380    1.000
    C53      C        0.64090    0.92180    0.03890    1.000
    H51      H        0.63970    0.87140    0.01390    1.000
    C54      C        0.68710    0.94850    0.08240    1.000
    H52      H        0.71710    0.91610    0.08620    1.000
    C55      C        0.70030    0.88030    0.36360    1.000
    C56      C        0.64860    0.87270    0.33070    1.000
    H53      H        0.63760    0.86600    0.28930    1.000
    C57      C        0.61240    0.87460    0.35670    1.000
    H54      H        0.57740    0.86870    0.33350    1.000
    C58      C        0.62850    0.88520    0.41700    1.000
    H55      H        0.60430    0.88800    0.43510    1.000
    C59      C        0.68070    0.89180    0.45160    1.000
    H56      H        0.69140    0.89760    0.49300    1.000
    C60      C        0.71640    0.89000    0.42520    1.000
    H57      H        0.75130    0.89510    0.44850    1.000
    C61      C        0.80570    0.90870    0.38000    1.000
    C62      C        0.84210    0.84260    0.40970    1.000
    H58      H        0.83460    0.77940    0.40130    1.000
    C63      C        0.88990    0.86790    0.45180    1.000
    H59      H        0.91420    0.82240    0.47140    1.000
    C64      C        0.90070    0.96260    0.46420    1.000
    H60      H        0.93240    0.98020    0.49260    1.000
    C65      C        0.86640    0.02810    0.43630    1.000
    H61      H        0.87420    0.09120    0.44490    1.000
    C66      C        0.81890    0.00180    0.39390    1.000
    H62      H        0.79530    0.04830    0.37430    1.000
    C67      C        0.87570    0.15450    0.29380    1.000
    H63      H        0.87190    0.11290    0.26260    1.000
    C68      C        0.85990    0.25650    0.34740    1.000
    H64      H        0.84290    0.30090    0.36160    1.000
    C69      C        0.90960    0.23210    0.37520    1.000
    H65      H        0.93270    0.25570    0.41130    1.000
    C70      C        0.96750    0.11590    0.35240    1.000
    H66      H        0.96360    0.05180    0.36360    1.000
    H67      H        0.99440    0.14530    0.38590    1.000
    C71      C        0.98380    0.11490    0.29820    1.000
    C72      C        0.99290    0.19830    0.27370    1.000
    H68      H        0.98910    0.25510    0.29060    1.000
    C73      C        0.99250    0.03480    0.27380    1.000
    H69      H        0.98820    0.97770    0.29000    1.000
    C74      C        0.70700    0.30160    0.46970    1.000
    H70      H        0.67810    0.33800    0.44940    1.000
    C75      C        0.75180    0.15910    0.48310    1.000
    H71      H        0.75380    0.09720    0.47190    1.000
    C76      C        0.70850    0.21090    0.45320    1.000
    C77      C        0.66520    0.16890    0.40190    1.000
    H72      H        0.66720    0.10100    0.40470    1.000
    H73      H        0.63250    0.18820    0.40380    1.000
    C78      C        0.71045    0.20710    0.33160    1.000
    H74      H        0.74370    0.19890    0.35960    1.000
    C79      C        0.62675    0.21770    0.29200    1.000
    H75      H        0.59190    0.21800    0.28660    1.000
    C80      C        0.64670    0.23560    0.25090    1.000
    H76      H        0.62750    0.25100    0.21130    1.000
    Ag3      Ag       0.74615    0.71701    0.27937    1.000
    P5       P        0.75083    0.55883    0.32015    1.000
    P6       P        0.75443    0.36946    0.17436    1.000
    N9       N        0.66174    0.70840    0.20364    1.000
    N10      N        0.58077    0.66590    0.16000    1.000
    N11      N        0.83250    0.69890    0.15624    1.000
    N12      N        0.80047    0.72820    0.22512    1.000
    C81      C        0.73713    0.46440    0.26446    1.000
    H77      H        0.73940    0.40460    0.28460    1.000
    H78      H        0.70200    0.47130    0.23600    1.000
    C82      C        0.77328    0.46290    0.23064    1.000
    H79      H        0.80840    0.45240    0.25840    1.000
    H80      H        0.77210    0.52290    0.21120    1.000
    C83      C        0.70130    0.54220    0.35185    1.000
    C84      C        0.66520    0.47090    0.33520    1.000
    H81      H        0.66720    0.42440    0.30900    1.000
    C85      C        0.62630    0.46880    0.35770    1.000
    H82      H        0.60130    0.42200    0.34520    1.000
    C86      C        0.62380    0.53450    0.39790    1.000
    H83      H        0.59840    0.53060    0.41420    1.000
    C87      C        0.65870    0.60510    0.41380    1.000
    H84      H        0.65660    0.65070    0.44050    1.000
    C88      C        0.69740    0.61040    0.39090    1.000
    H85      H        0.72070    0.65990    0.40180    1.000
    C89      C        0.81034    0.52260    0.37953    1.000
    C90      C        0.85460    0.56950    0.38650    1.000
    H86      H        0.85360    0.61940    0.36120    1.000
    C91      C        0.90120    0.54440    0.43060    1.000
    H87      H        0.93110    0.57790    0.43550    1.000
    C92      C        0.90260    0.46930    0.46710    1.000
    H88      H        0.93390    0.45110    0.49620    1.000
    C93      C        0.85910    0.42180    0.46110    1.000
    H89      H        0.86030    0.37140    0.48610    1.000
    C94      C        0.81290    0.44850    0.41760    1.000
    H90      H        0.78290    0.41610    0.41380    1.000
    C95      C        0.79970    0.38030    0.13640    1.000
    C96      C        0.85140    0.37270    0.16930    1.000
    H91      H        0.86240    0.36600    0.21070    1.000
    C97      C        0.88760    0.37460    0.14330    1.000
    H92      H        0.92260    0.36870    0.16650    1.000
    C98      C        0.87150    0.38520    0.08300    1.000
    H93      H        0.89570    0.38800    0.06490    1.000
    C99      C        0.81930    0.39180    0.04840    1.000
    H94      H        0.80860    0.39760    0.00700    1.000
    C100     C        0.78360    0.39000    0.07480    1.000
    H95      H        0.74870    0.39510    0.05150    1.000
    C101     C        0.69430    0.40870    0.12000    1.000
    C102     C        0.65790    0.34260    0.09030    1.000
    H96      H        0.66540    0.27940    0.09870    1.000
    C103     C        0.61010    0.36790    0.04820    1.000
    H97      H        0.58580    0.32240    0.02860    1.000
    C104     C        0.59930    0.46260    0.03580    1.000
    H98      H        0.56760    0.48020    0.00740    1.000
    C105     C        0.63360    0.52810    0.06370    1.000
    H99      H        0.62580    0.59120    0.05510    1.000
    C106     C        0.68110    0.50180    0.10610    1.000
    H100     H        0.70470    0.54830    0.12570    1.000
    C107     C        0.62430    0.65450    0.20620    1.000
    H101     H        0.62810    0.61290    0.23740    1.000
    C108     C        0.64010    0.75650    0.15260    1.000
    H102     H        0.65710    0.80090    0.13840    1.000
    C109     C        0.59040    0.73210    0.12480    1.000
    H103     H        0.56730    0.75570    0.08870    1.000
    C110     C        0.53250    0.61590    0.14760    1.000
    H104     H        0.53640    0.55180    0.13640    1.000
    H105     H        0.50560    0.64530    0.11410    1.000
    C111     C        0.51620    0.61490    0.20180    1.000
    C112     C        0.50710    0.69830    0.22630    1.000
    H106     H        0.51090    0.75510    0.20940    1.000
    C113     C        0.50750    0.53480    0.22620    1.000
    H107     H        0.51180    0.47770    0.21000    1.000
    C114     C        0.79300    0.80160    0.03030    1.000
    H108     H        0.82190    0.83800    0.05060    1.000
    C115     C        0.74820    0.65910    0.01690    1.000
    H109     H        0.74620    0.59720    0.02810    1.000
    C116     C        0.79150    0.71090    0.04680    1.000
    C117     C        0.83480    0.66890    0.09810    1.000
    H110     H        0.83280    0.60100    0.09530    1.000
    H111     H        0.86750    0.68820    0.09620    1.000
    C118     C        0.78955    0.70710    0.16840    1.000
    H112     H        0.75630    0.69890    0.14040    1.000
    C119     C        0.87325    0.71770    0.20800    1.000
    H113     H        0.90810    0.71800    0.21340    1.000
    C120     C        0.85330    0.73560    0.24910    1.000
    H114     H        0.87250    0.75100    0.28870    1.000
    Ag4      Ag       0.24616    0.21701    0.27937    1.000
    P7       P        0.25083    0.05883    0.32015    1.000
    P8       P        0.25443    0.86946    0.17436    1.000
    N13      N        0.16174    0.20840    0.20364    1.000
    N14      N        0.08077    0.16590    0.16000    1.000
    N15      N        0.33250    0.19890    0.15624    1.000
    N16      N        0.30047    0.22820    0.22512    1.000
    C121     C        0.23713    0.96440    0.26446    1.000
    H115     H        0.23940    0.90460    0.28460    1.000
    H116     H        0.20200    0.97130    0.23600    1.000
    C122     C        0.27328    0.96290    0.23064    1.000
    H117     H        0.30840    0.95240    0.25840    1.000
    H118     H        0.27210    0.02290    0.21120    1.000
    C123     C        0.20130    0.04220    0.35185    1.000
    C124     C        0.16520    0.97090    0.33520    1.000
    H119     H        0.16720    0.92440    0.30900    1.000
    C125     C        0.12630    0.96880    0.35770    1.000
    H120     H        0.10130    0.92200    0.34520    1.000
    C126     C        0.12380    0.03450    0.39790    1.000
    H121     H        0.09840    0.03060    0.41420    1.000
    C127     C        0.15870    0.10510    0.41380    1.000
    H122     H        0.15660    0.15070    0.44050    1.000
    C128     C        0.19740    0.11040    0.39090    1.000
    H123     H        0.22070    0.15990    0.40180    1.000
    C129     C        0.31034    0.02260    0.37953    1.000
    C130     C        0.35460    0.06950    0.38650    1.000
    H124     H        0.35360    0.11940    0.36120    1.000
    C131     C        0.40120    0.04440    0.43060    1.000
    H125     H        0.43110    0.07790    0.43550    1.000
    C132     C        0.40260    0.96930    0.46710    1.000
    H126     H        0.43390    0.95110    0.49620    1.000
    C133     C        0.35910    0.92180    0.46110    1.000
    H127     H        0.36030    0.87140    0.48610    1.000
    C134     C        0.31290    0.94850    0.41760    1.000
    H128     H        0.28290    0.91610    0.41380    1.000
    C135     C        0.29970    0.88030    0.13640    1.000
    C136     C        0.35140    0.87270    0.16930    1.000
    H129     H        0.36240    0.86600    0.21070    1.000
    C137     C        0.38760    0.87460    0.14330    1.000
    H130     H        0.42260    0.86870    0.16650    1.000
    C138     C        0.37150    0.88520    0.08300    1.000
    H131     H        0.39570    0.88800    0.06490    1.000
    C139     C        0.31930    0.89180    0.04840    1.000
    H132     H        0.30860    0.89760    0.00700    1.000
    C140     C        0.28360    0.89000    0.07480    1.000
    H133     H        0.24870    0.89510    0.05150    1.000
    C141     C        0.19430    0.90870    0.12000    1.000
    C142     C        0.15790    0.84260    0.09030    1.000
    H134     H        0.16540    0.77940    0.09870    1.000
    C143     C        0.11010    0.86790    0.04820    1.000
    H135     H        0.08580    0.82240    0.02860    1.000
    C144     C        0.09930    0.96260    0.03580    1.000
    H136     H        0.06760    0.98020    0.00740    1.000
    C145     C        0.13360    0.02810    0.06370    1.000
    H137     H        0.12580    0.09120    0.05510    1.000
    C146     C        0.18110    0.00180    0.10610    1.000
    H138     H        0.20470    0.04830    0.12570    1.000
    C147     C        0.12430    0.15450    0.20620    1.000
    H139     H        0.12810    0.11290    0.23740    1.000
    C148     C        0.14010    0.25650    0.15260    1.000
    H140     H        0.15710    0.30090    0.13840    1.000
    C149     C        0.09040    0.23210    0.12480    1.000
    H141     H        0.06730    0.25570    0.08870    1.000
    C150     C        0.03250    0.11590    0.14760    1.000
    H142     H        0.03640    0.05180    0.13640    1.000
    H143     H        0.00560    0.14530    0.11410    1.000
    C151     C        0.01620    0.11490    0.20180    1.000
    C152     C        0.00710    0.19830    0.22630    1.000
    H144     H        0.01090    0.25510    0.20940    1.000
    C153     C        0.00750    0.03480    0.22620    1.000
    H145     H        0.01180    0.97770    0.21000    1.000
    C154     C        0.29300    0.30160    0.03030    1.000
    H146     H        0.32190    0.33800    0.05060    1.000
    C155     C        0.24820    0.15910    0.01690    1.000
    H147     H        0.24620    0.09720    0.02810    1.000
    C156     C        0.29150    0.21090    0.04680    1.000
    C157     C        0.33480    0.16890    0.09810    1.000
    H148     H        0.33280    0.10100    0.09530    1.000
    H149     H        0.36750    0.18820    0.09620    1.000
    C158     C        0.28955    0.20710    0.16840    1.000
    H150     H        0.25630    0.19890    0.14040    1.000
    C159     C        0.37325    0.21770    0.20800    1.000
    H151     H        0.40810    0.21800    0.21340    1.000
    C160     C        0.35330    0.23560    0.24910    1.000
    H152     H        0.37250    0.25100    0.28870    1.000
    Ag5      Ag       0.74615    0.28299    0.77937    1.000
    P9       P        0.75083    0.44117    0.82015    1.000
    P10      P        0.75443    0.63054    0.67436    1.000
    N17      N        0.66174    0.29160    0.70364    1.000
    N18      N        0.58077    0.33410    0.66000    1.000
    N19      N        0.83250    0.30110    0.65624    1.000
    N20      N        0.80047    0.27180    0.72512    1.000
    C161     C        0.73713    0.53560    0.76446    1.000
    H153     H        0.73940    0.59540    0.78460    1.000
    H154     H        0.70200    0.52870    0.73600    1.000
    C162     C        0.77328    0.53710    0.73064    1.000
    H155     H        0.80840    0.54760    0.75840    1.000
    H156     H        0.77210    0.47710    0.71120    1.000
    C163     C        0.70130    0.45780    0.85185    1.000
    C164     C        0.66520    0.52910    0.83520    1.000
    H157     H        0.66720    0.57560    0.80900    1.000
    C165     C        0.62630    0.53120    0.85770    1.000
    H158     H        0.60130    0.57800    0.84520    1.000
    C166     C        0.62380    0.46550    0.89790    1.000
    H159     H        0.59840    0.46940    0.91420    1.000
    C167     C        0.65870    0.39490    0.91380    1.000
    H160     H        0.65660    0.34930    0.94050    1.000
    C168     C        0.69740    0.38960    0.89090    1.000
    H161     H        0.72070    0.34010    0.90180    1.000
    C169     C        0.81034    0.47740    0.87953    1.000
    C170     C        0.85460    0.43050    0.88650    1.000
    H162     H        0.85360    0.38060    0.86120    1.000
    C171     C        0.90120    0.45560    0.93060    1.000
    H163     H        0.93110    0.42210    0.93550    1.000
    C172     C        0.90260    0.53070    0.96710    1.000
    H164     H        0.93390    0.54890    0.99620    1.000
    C173     C        0.85910    0.57820    0.96110    1.000
    H165     H        0.86030    0.62860    0.98610    1.000
    C174     C        0.81290    0.55150    0.91760    1.000
    H166     H        0.78290    0.58390    0.91380    1.000
    C175     C        0.79970    0.61970    0.63640    1.000
    C176     C        0.85140    0.62730    0.66930    1.000
    H167     H        0.86240    0.63400    0.71070    1.000
    C177     C        0.88760    0.62540    0.64330    1.000
    H168     H        0.92260    0.63130    0.66650    1.000
    C178     C        0.87150    0.61480    0.58300    1.000
    H169     H        0.89570    0.61200    0.56490    1.000
    C179     C        0.81930    0.60820    0.54840    1.000
    H170     H        0.80860    0.60240    0.50700    1.000
    C180     C        0.78360    0.61000    0.57480    1.000
    H171     H        0.74870    0.60490    0.55150    1.000
    C181     C        0.69430    0.59130    0.62000    1.000
    C182     C        0.65790    0.65740    0.59030    1.000
    H172     H        0.66540    0.72060    0.59870    1.000
    C183     C        0.61010    0.63210    0.54820    1.000
    H173     H        0.58580    0.67760    0.52860    1.000
    C184     C        0.59930    0.53740    0.53580    1.000
    H174     H        0.56760    0.51980    0.50740    1.000
    C185     C        0.63360    0.47190    0.56370    1.000
    H175     H        0.62580    0.40880    0.55510    1.000
    C186     C        0.68110    0.49820    0.60610    1.000
    H176     H        0.70470    0.45170    0.62570    1.000
    C187     C        0.62430    0.34550    0.70620    1.000
    H177     H        0.62810    0.38710    0.73740    1.000
    C188     C        0.64010    0.24350    0.65260    1.000
    H178     H        0.65710    0.19910    0.63840    1.000
    C189     C        0.59040    0.26790    0.62480    1.000
    H179     H        0.56730    0.24430    0.58870    1.000
    C190     C        0.53250    0.38410    0.64760    1.000
    H180     H        0.53640    0.44820    0.63640    1.000
    H181     H        0.50560    0.35470    0.61410    1.000
    C191     C        0.51620    0.38510    0.70180    1.000
    C192     C        0.50710    0.30170    0.72630    1.000
    H182     H        0.51090    0.24490    0.70940    1.000
    C193     C        0.50750    0.46520    0.72620    1.000
    H183     H        0.51180    0.52230    0.71000    1.000
    C194     C        0.79300    0.19840    0.53030    1.000
    H184     H        0.82190    0.16200    0.55060    1.000
    C195     C        0.74820    0.34090    0.51690    1.000
    H185     H        0.74620    0.40280    0.52810    1.000
    C196     C        0.79150    0.28910    0.54680    1.000
    C197     C        0.83480    0.33110    0.59810    1.000
    H186     H        0.83280    0.39900    0.59530    1.000
    H187     H        0.86750    0.31180    0.59620    1.000
    C198     C        0.78955    0.29290    0.66840    1.000
    H188     H        0.75630    0.30110    0.64040    1.000
    C199     C        0.87325    0.28230    0.70800    1.000
    H189     H        0.90810    0.28200    0.71340    1.000
    C200     C        0.85330    0.26440    0.74910    1.000
    H190     H        0.87250    0.24900    0.78870    1.000
    Ag6      Ag       0.24616    0.78299    0.77937    1.000
    P11      P        0.25083    0.94117    0.82015    1.000
    P12      P        0.25443    0.13054    0.67436    1.000
    N21      N        0.16174    0.79160    0.70364    1.000
    N22      N        0.08077    0.83410    0.66000    1.000
    N23      N        0.33250    0.80110    0.65624    1.000
    N24      N        0.30047    0.77180    0.72512    1.000
    C201     C        0.23713    0.03560    0.76446    1.000
    H191     H        0.23940    0.09540    0.78460    1.000
    H192     H        0.20200    0.02870    0.73600    1.000
    C202     C        0.27328    0.03710    0.73064    1.000
    H193     H        0.30840    0.04760    0.75840    1.000
    H194     H        0.27210    0.97710    0.71120    1.000
    C203     C        0.20130    0.95780    0.85185    1.000
    C204     C        0.16520    0.02910    0.83520    1.000
    H195     H        0.16720    0.07560    0.80900    1.000
    C205     C        0.12630    0.03120    0.85770    1.000
    H196     H        0.10130    0.07800    0.84520    1.000
    C206     C        0.12380    0.96550    0.89790    1.000
    H197     H        0.09840    0.96940    0.91420    1.000
    C207     C        0.15870    0.89490    0.91380    1.000
    H198     H        0.15660    0.84930    0.94050    1.000
    C208     C        0.19740    0.88960    0.89090    1.000
    H199     H        0.22070    0.84010    0.90180    1.000
    C209     C        0.31034    0.97740    0.87953    1.000
    C210     C        0.35460    0.93050    0.88650    1.000
    H200     H        0.35360    0.88060    0.86120    1.000
    C211     C        0.40120    0.95560    0.93060    1.000
    H201     H        0.43110    0.92210    0.93550    1.000
    C212     C        0.40260    0.03070    0.96710    1.000
    H202     H        0.43390    0.04890    0.99620    1.000
    C213     C        0.35910    0.07820    0.96110    1.000
    H203     H        0.36030    0.12860    0.98610    1.000
    C214     C        0.31290    0.05150    0.91760    1.000
    H204     H        0.28290    0.08390    0.91380    1.000
    C215     C        0.29970    0.11970    0.63640    1.000
    C216     C        0.35140    0.12730    0.66930    1.000
    H205     H        0.36240    0.13400    0.71070    1.000
    C217     C        0.38760    0.12540    0.64330    1.000
    H206     H        0.42260    0.13130    0.66650    1.000
    C218     C        0.37150    0.11480    0.58300    1.000
    H207     H        0.39570    0.11200    0.56490    1.000
    C219     C        0.31930    0.10820    0.54840    1.000
    H208     H        0.30860    0.10240    0.50700    1.000
    C220     C        0.28360    0.11000    0.57480    1.000
    H209     H        0.24870    0.10490    0.55150    1.000
    C221     C        0.19430    0.09130    0.62000    1.000
    C222     C        0.15790    0.15740    0.59030    1.000
    H210     H        0.16540    0.22060    0.59870    1.000
    C223     C        0.11010    0.13210    0.54820    1.000
    H211     H        0.08580    0.17760    0.52860    1.000
    C224     C        0.09930    0.03740    0.53580    1.000
    H212     H        0.06760    0.01980    0.50740    1.000
    C225     C        0.13360    0.97190    0.56370    1.000
    H213     H        0.12580    0.90880    0.55510    1.000
    C226     C        0.18110    0.99820    0.60610    1.000
    H214     H        0.20470    0.95170    0.62570    1.000
    C227     C        0.12430    0.84550    0.70620    1.000
    H215     H        0.12810    0.88710    0.73740    1.000
    C228     C        0.14010    0.74350    0.65260    1.000
    H216     H        0.15710    0.69910    0.63840    1.000
    C229     C        0.09040    0.76790    0.62480    1.000
    H217     H        0.06730    0.74430    0.58870    1.000
    C230     C        0.03250    0.88410    0.64760    1.000
    H218     H        0.03640    0.94820    0.63640    1.000
    H219     H        0.00560    0.85470    0.61410    1.000
    C231     C        0.01620    0.88510    0.70180    1.000
    C232     C        0.00710    0.80170    0.72630    1.000
    H220     H        0.01090    0.74490    0.70940    1.000
    C233     C        0.00750    0.96520    0.72620    1.000
    H221     H        0.01180    0.02230    0.71000    1.000
    C234     C        0.29300    0.69840    0.53030    1.000
    H222     H        0.32190    0.66200    0.55060    1.000
    C235     C        0.24820    0.84090    0.51690    1.000
    H223     H        0.24620    0.90280    0.52810    1.000
    C236     C        0.29150    0.78910    0.54680    1.000
    C237     C        0.33480    0.83110    0.59810    1.000
    H224     H        0.33280    0.89900    0.59530    1.000
    H225     H        0.36750    0.81180    0.59620    1.000
    C238     C        0.28955    0.79290    0.66840    1.000
    H226     H        0.25630    0.80110    0.64040    1.000
    C239     C        0.37325    0.78230    0.70800    1.000
    H227     H        0.40810    0.78200    0.71340    1.000
    C240     C        0.35330    0.76440    0.74910    1.000
    H228     H        0.37250    0.74900    0.78870    1.000
    Ag7      Ag       0.25384    0.28299    0.72063    1.000
    P13      P        0.24917    0.44117    0.67985    1.000
    P14      P        0.24557    0.63054    0.82564    1.000
    N25      N        0.33826    0.29160    0.79636    1.000
    N26      N        0.41923    0.33410    0.84000    1.000
    N27      N        0.16750    0.30110    0.84376    1.000
    N28      N        0.19953    0.27180    0.77488    1.000
    C241     C        0.26287    0.53560    0.73554    1.000
    H229     H        0.26060    0.59540    0.71540    1.000
    H230     H        0.29800    0.52870    0.76400    1.000
    C242     C        0.22672    0.53710    0.76936    1.000
    H231     H        0.19160    0.54760    0.74160    1.000
    H232     H        0.22790    0.47710    0.78880    1.000
    C243     C        0.29870    0.45780    0.64815    1.000
    C244     C        0.33480    0.52910    0.66480    1.000
    H233     H        0.33280    0.57560    0.69100    1.000
    C245     C        0.37370    0.53120    0.64230    1.000
    H234     H        0.39870    0.57800    0.65480    1.000
    C246     C        0.37620    0.46550    0.60210    1.000
    H235     H        0.40160    0.46940    0.58580    1.000
    C247     C        0.34130    0.39490    0.58620    1.000
    H236     H        0.34340    0.34930    0.55950    1.000
    C248     C        0.30260    0.38960    0.60910    1.000
    H237     H        0.27930    0.34010    0.59820    1.000
    C249     C        0.18966    0.47740    0.62047    1.000
    C250     C        0.14540    0.43050    0.61350    1.000
    H238     H        0.14640    0.38060    0.63880    1.000
    C251     C        0.09880    0.45560    0.56940    1.000
    H239     H        0.06890    0.42210    0.56450    1.000
    C252     C        0.09740    0.53070    0.53290    1.000
    H240     H        0.06610    0.54890    0.50380    1.000
    C253     C        0.14090    0.57820    0.53890    1.000
    H241     H        0.13970    0.62860    0.51390    1.000
    C254     C        0.18710    0.55150    0.58240    1.000
    H242     H        0.21710    0.58390    0.58620    1.000
    C255     C        0.20030    0.61970    0.86360    1.000
    C256     C        0.14860    0.62730    0.83070    1.000
    H243     H        0.13760    0.63400    0.78930    1.000
    C257     C        0.11240    0.62540    0.85670    1.000
    H244     H        0.07740    0.63130    0.83350    1.000
    C258     C        0.12850    0.61480    0.91700    1.000
    H245     H        0.10430    0.61200    0.93510    1.000
    C259     C        0.18070    0.60820    0.95160    1.000
    H246     H        0.19140    0.60240    0.99300    1.000
    C260     C        0.21640    0.61000    0.92520    1.000
    H247     H        0.25130    0.60490    0.94850    1.000
    C261     C        0.30570    0.59130    0.88000    1.000
    C262     C        0.34210    0.65740    0.90970    1.000
    H248     H        0.33460    0.72060    0.90130    1.000
    C263     C        0.38990    0.63210    0.95180    1.000
    H249     H        0.41420    0.67760    0.97140    1.000
    C264     C        0.40070    0.53740    0.96420    1.000
    H250     H        0.43240    0.51980    0.99260    1.000
    C265     C        0.36640    0.47190    0.93630    1.000
    H251     H        0.37420    0.40880    0.94490    1.000
    C266     C        0.31890    0.49820    0.89390    1.000
    H252     H        0.29530    0.45170    0.87430    1.000
    C267     C        0.37570    0.34550    0.79380    1.000
    H253     H        0.37190    0.38710    0.76260    1.000
    C268     C        0.35990    0.24350    0.84740    1.000
    H254     H        0.34290    0.19910    0.86160    1.000
    C269     C        0.40960    0.26790    0.87520    1.000
    H255     H        0.43270    0.24430    0.91130    1.000
    C270     C        0.46750    0.38410    0.85240    1.000
    H256     H        0.46360    0.44820    0.86360    1.000
    H257     H        0.49440    0.35470    0.88590    1.000
    C271     C        0.48380    0.38510    0.79820    1.000
    C272     C        0.49290    0.30170    0.77370    1.000
    H258     H        0.48910    0.24490    0.79060    1.000
    C273     C        0.49250    0.46520    0.77380    1.000
    H259     H        0.48820    0.52230    0.79000    1.000
    C274     C        0.20700    0.19840    0.96970    1.000
    H260     H        0.17810    0.16200    0.94940    1.000
    C275     C        0.25180    0.34090    0.98310    1.000
    H261     H        0.25380    0.40280    0.97190    1.000
    C276     C        0.20850    0.28910    0.95320    1.000
    C277     C        0.16520    0.33110    0.90190    1.000
    H262     H        0.16720    0.39900    0.90470    1.000
    H263     H        0.13250    0.31180    0.90380    1.000
    C278     C        0.21045    0.29290    0.83160    1.000
    H264     H        0.24370    0.30110    0.85960    1.000
    C279     C        0.12675    0.28230    0.79200    1.000
    H265     H        0.09190    0.28200    0.78660    1.000
    C280     C        0.14670    0.26440    0.75090    1.000
    H266     H        0.12750    0.24900    0.71130    1.000
    Ag8      Ag       0.75384    0.78299    0.72063    1.000
    P15      P        0.74917    0.94117    0.67985    1.000
    P16      P        0.74557    0.13054    0.82564    1.000
    N29      N        0.83826    0.79160    0.79636    1.000
    N30      N        0.91923    0.83410    0.84000    1.000
    N31      N        0.66750    0.80110    0.84376    1.000
    N32      N        0.69953    0.77180    0.77488    1.000
    C281     C        0.76287    0.03560    0.73554    1.000
    H267     H        0.76060    0.09540    0.71540    1.000
    H268     H        0.79800    0.02870    0.76400    1.000
    C282     C        0.72672    0.03710    0.76936    1.000
    H269     H        0.69160    0.04760    0.74160    1.000
    H270     H        0.72790    0.97710    0.78880    1.000
    C283     C        0.79870    0.95780    0.64815    1.000
    C284     C        0.83480    0.02910    0.66480    1.000
    H271     H        0.83280    0.07560    0.69100    1.000
    C285     C        0.87370    0.03120    0.64230    1.000
    H272     H        0.89870    0.07800    0.65480    1.000
    C286     C        0.87620    0.96550    0.60210    1.000
    H273     H        0.90160    0.96940    0.58580    1.000
    C287     C        0.84130    0.89490    0.58620    1.000
    H274     H        0.84340    0.84930    0.55950    1.000
    C288     C        0.80260    0.88960    0.60910    1.000
    H275     H        0.77930    0.84010    0.59820    1.000
    C289     C        0.68966    0.97740    0.62047    1.000
    C290     C        0.64540    0.93050    0.61350    1.000
    H276     H        0.64640    0.88060    0.63880    1.000
    C291     C        0.59880    0.95560    0.56940    1.000
    H277     H        0.56890    0.92210    0.56450    1.000
    C292     C        0.59740    0.03070    0.53290    1.000
    H278     H        0.56610    0.04890    0.50380    1.000
    C293     C        0.64090    0.07820    0.53890    1.000
    H279     H        0.63970    0.12860    0.51390    1.000
    C294     C        0.68710    0.05150    0.58240    1.000
    H280     H        0.71710    0.08390    0.58620    1.000
    C295     C        0.70030    0.11970    0.86360    1.000
    C296     C        0.64860    0.12730    0.83070    1.000
    H281     H        0.63760    0.13400    0.78930    1.000
    C297     C        0.61240    0.12540    0.85670    1.000
    H282     H        0.57740    0.13130    0.83350    1.000
    C298     C        0.62850    0.11480    0.91700    1.000
    H283     H        0.60430    0.11200    0.93510    1.000
    C299     C        0.68070    0.10820    0.95160    1.000
    H284     H        0.69140    0.10240    0.99300    1.000
    C300     C        0.71640    0.11000    0.92520    1.000
    H285     H        0.75130    0.10490    0.94850    1.000
    C301     C        0.80570    0.09130    0.88000    1.000
    C302     C        0.84210    0.15740    0.90970    1.000
    H286     H        0.83460    0.22060    0.90130    1.000
    C303     C        0.88990    0.13210    0.95180    1.000
    H287     H        0.91420    0.17760    0.97140    1.000
    C304     C        0.90070    0.03740    0.96420    1.000
    H288     H        0.93240    0.01980    0.99260    1.000
    C305     C        0.86640    0.97190    0.93630    1.000
    H289     H        0.87420    0.90880    0.94490    1.000
    C306     C        0.81890    0.99820    0.89390    1.000
    H290     H        0.79530    0.95170    0.87430    1.000
    C307     C        0.87570    0.84550    0.79380    1.000
    H291     H        0.87190    0.88710    0.76260    1.000
    C308     C        0.85990    0.74350    0.84740    1.000
    H292     H        0.84290    0.69910    0.86160    1.000
    C309     C        0.90960    0.76790    0.87520    1.000
    H293     H        0.93270    0.74430    0.91130    1.000
    C310     C        0.96750    0.88410    0.85240    1.000
    H294     H        0.96360    0.94820    0.86360    1.000
    H295     H        0.99440    0.85470    0.88590    1.000
    C311     C        0.98380    0.88510    0.79820    1.000
    C312     C        0.99290    0.80170    0.77370    1.000
    H296     H        0.98910    0.74490    0.79060    1.000
    C313     C        0.99250    0.96520    0.77380    1.000
    H297     H        0.98820    0.02230    0.79000    1.000
    C314     C        0.70700    0.69840    0.96970    1.000
    H298     H        0.67810    0.66200    0.94940    1.000
    C315     C        0.75180    0.84090    0.98310    1.000
    H299     H        0.75380    0.90280    0.97190    1.000
    C316     C        0.70850    0.78910    0.95320    1.000
    C317     C        0.66520    0.83110    0.90190    1.000
    H300     H        0.66720    0.89900    0.90470    1.000
    H301     H        0.63250    0.81180    0.90380    1.000
    C318     C        0.71045    0.79290    0.83160    1.000
    H302     H        0.74370    0.80110    0.85960    1.000
    C319     C        0.62675    0.78230    0.79200    1.000
    H303     H        0.59190    0.78200    0.78660    1.000
    C320     C        0.64670    0.76440    0.75090    1.000
    H304     H        0.62750    0.74900    0.71130    1.000
