# CIF file generated by openbabel 3.1.0, see https://openbabel.org
data_I
_chemical_name_common 'YEMJAC_clean'
_cell_length_a 10.3131
_cell_length_b 10.3131
_cell_length_c 14.495
_cell_angle_alpha 90
_cell_angle_beta 90
_cell_angle_gamma 90
_space_group_name_H-M_alt 'P 1'
_space_group_name_Hall 'P 1'
loop_
    _symmetry_equiv_pos_as_xyz
    x,y,z
loop_
    _atom_site_label
    _atom_site_type_symbol
    _atom_site_fract_x
    _atom_site_fract_y
    _atom_site_fract_z
    _atom_site_occupancy
    Dy1      Dy       0.64911    0.64911    0.87500    1.000
    Dy2      Dy       0.35089    0.35089    0.37500    1.000
    Dy3      Dy       0.35089    0.64911    0.12500    1.000
    Dy4      Dy       0.64911    0.35089    0.62500    1.000
    H1       H        0.58270    0.06050    0.87470    1.000
    H2       H        0.41730    0.93950    0.37470    1.000
    H3       H        0.93950    0.58270    0.12470    1.000
    H4       H        0.06050    0.41730    0.62470    1.000
    H5       H        0.41730    0.06050    0.12530    1.000
    H6       H        0.58270    0.93950    0.62530    1.000
    H7       H        0.06050    0.58270    0.87530    1.000
    H8       H        0.93950    0.41730    0.37530    1.000
    H9       H        0.50000    0.39810    0.00000    1.000
    H10      H        0.50000    0.60190    0.50000    1.000
    H11      H        0.60190    0.50000    0.25000    1.000
    H12      H        0.39810    0.50000    0.75000    1.000
    C1       C        0.54800    0.10560    0.92440    1.000
    C2       C        0.54450    0.23900    0.92270    1.000
    C3       C        0.58970    0.31620    0.84000    1.000
    C4       C        0.45200    0.89440    0.42440    1.000
    C5       C        0.45550    0.76100    0.42270    1.000
    C6       C        0.41030    0.68380    0.34000    1.000
    C7       C        0.89440    0.54800    0.17440    1.000
    C8       C        0.76100    0.54450    0.17270    1.000
    C9       C        0.68380    0.58970    0.09000    1.000
    C10      C        0.10560    0.45200    0.67440    1.000
    C11      C        0.23900    0.45550    0.67270    1.000
    C12      C        0.31620    0.41030    0.59000    1.000
    C13      C        0.45200    0.10560    0.07560    1.000
    C14      C        0.45550    0.23900    0.07730    1.000
    C15      C        0.41030    0.31620    0.16000    1.000
    C16      C        0.54800    0.89440    0.57560    1.000
    C17      C        0.54450    0.76100    0.57730    1.000
    C18      C        0.58970    0.68380    0.66000    1.000
    C19      C        0.10560    0.54800    0.82560    1.000
    C20      C        0.23900    0.54450    0.82730    1.000
    C21      C        0.31620    0.58970    0.91000    1.000
    C22      C        0.89440    0.45200    0.32560    1.000
    C23      C        0.76100    0.45550    0.32730    1.000
    C24      C        0.68380    0.41030    0.41000    1.000
    C25      C        0.50000    0.89250    0.00000    1.000
    C26      C        0.50000    0.03770    0.00000    1.000
    C27      C        0.50000    0.30790    0.00000    1.000
    C28      C        0.50000    0.10750    0.50000    1.000
    C29      C        0.50000    0.96230    0.50000    1.000
    C30      C        0.50000    0.69210    0.50000    1.000
    C31      C        0.10750    0.50000    0.25000    1.000
    C32      C        0.96230    0.50000    0.25000    1.000
    C33      C        0.69210    0.50000    0.25000    1.000
    C34      C        0.89250    0.50000    0.75000    1.000
    C35      C        0.03770    0.50000    0.75000    1.000
    C36      C        0.30790    0.50000    0.75000    1.000
    O1       O        0.57130    0.83530    0.94110    1.000
    O2       O        0.59720    0.25720    0.76520    1.000
    O3       O        0.61240    0.43100    0.85030    1.000
    O4       O        0.42870    0.16470    0.44110    1.000
    O5       O        0.40280    0.74280    0.26520    1.000
    O6       O        0.38760    0.56900    0.35030    1.000
    O7       O        0.16470    0.57130    0.19110    1.000
    O8       O        0.74280    0.59720    0.01520    1.000
    O9       O        0.56900    0.61240    0.10030    1.000
    O10      O        0.83530    0.42870    0.69110    1.000
    O11      O        0.25720    0.40280    0.51520    1.000
    O12      O        0.43100    0.38760    0.60030    1.000
    O13      O        0.42870    0.83530    0.05890    1.000
    O14      O        0.40280    0.25720    0.23480    1.000
    O15      O        0.38760    0.43100    0.14970    1.000
    O16      O        0.57130    0.16470    0.55890    1.000
    O17      O        0.59720    0.74280    0.73480    1.000
    O18      O        0.61240    0.56900    0.64970    1.000
    O19      O        0.83530    0.57130    0.80890    1.000
    O20      O        0.25720    0.59720    0.98480    1.000
    O21      O        0.43100    0.61240    0.89970    1.000
    O22      O        0.16470    0.42870    0.30890    1.000
    O23      O        0.74280    0.40280    0.48480    1.000
    O24      O        0.56900    0.38760    0.39970    1.000
