# CIF file generated by openbabel 3.1.0, see https://openbabel.org
data_I
_chemical_name_common 'image0'
_cell_length_a 13.427
_cell_length_b 8.7318
_cell_length_c 15.083
_cell_angle_alpha 90
_cell_angle_beta 111.7
_cell_angle_gamma 90
_space_group_name_H-M_alt 'P 1'
_space_group_name_Hall 'P 1'
loop_
    _symmetry_equiv_pos_as_xyz
    x,y,z
loop_
    _atom_site_label
    _atom_site_type_symbol
    _atom_site_fract_x
    _atom_site_fract_y
    _atom_site_fract_z
    _atom_site_occupancy
    C1       C        0.66390    0.23540    0.57530    1.000
    C2       C        0.83490    0.40040    0.58710    1.000
    C3       C        0.83540    0.08760    0.57430    1.000
    N1       N        0.61480    0.22260    0.62320    1.000
    N2       N        0.88250    0.49210    0.64100    1.000
    N3       N        0.88210    0.98360    0.61600    1.000
    C4       C        0.16390    0.73540    0.57530    1.000
    C5       C        0.33490    0.90040    0.58710    1.000
    C6       C        0.33540    0.58760    0.57430    1.000
    N4       N        0.11480    0.72260    0.62320    1.000
    N5       N        0.38250    0.99210    0.64100    1.000
    N6       N        0.38210    0.48360    0.61600    1.000
    C7       C        0.33610    0.23540    0.92470    1.000
    C8       C        0.16510    0.40040    0.91290    1.000
    C9       C        0.16460    0.08760    0.92570    1.000
    N7       N        0.38520    0.22260    0.87680    1.000
    N8       N        0.11750    0.49210    0.85900    1.000
    N9       N        0.11790    0.98360    0.88400    1.000
    C10      C        0.83610    0.73540    0.92470    1.000
    C11      C        0.66510    0.90040    0.91290    1.000
    C12      C        0.66460    0.58760    0.92570    1.000
    N10      N        0.88520    0.72260    0.87680    1.000
    N11      N        0.61750    0.99210    0.85900    1.000
    N12      N        0.61790    0.48360    0.88400    1.000
    C13      C        0.33610    0.76460    0.42470    1.000
    C14      C        0.16510    0.59960    0.41290    1.000
    C15      C        0.16460    0.91240    0.42570    1.000
    N13      N        0.38520    0.77740    0.37680    1.000
    N14      N        0.11750    0.50790    0.35900    1.000
    N15      N        0.11790    0.01640    0.38400    1.000
    C16      C        0.83610    0.26460    0.42470    1.000
    C17      C        0.66510    0.09960    0.41290    1.000
    C18      C        0.66460    0.41240    0.42570    1.000
    N16      N        0.88520    0.27740    0.37680    1.000
    N17      N        0.61750    0.00790    0.35900    1.000
    N18      N        0.61790    0.51640    0.38400    1.000
    C19      C        0.66390    0.76460    0.07530    1.000
    C20      C        0.83490    0.59960    0.08710    1.000
    C21      C        0.83540    0.91240    0.07430    1.000
    N19      N        0.61480    0.77740    0.12320    1.000
    N20      N        0.88250    0.50790    0.14100    1.000
    N21      N        0.88210    0.01640    0.11600    1.000
    C22      C        0.16390    0.26460    0.07530    1.000
    C23      C        0.33490    0.09960    0.08710    1.000
    C24      C        0.33540    0.41240    0.07430    1.000
    N22      N        0.11480    0.27740    0.12320    1.000
    N23      N        0.38250    0.00790    0.14100    1.000
    N24      N        0.38210    0.51640    0.11600    1.000
    Co1      Co       0.75000    0.25000    0.50000    1.000
    Co2      Co       0.25000    0.25000    0.00000    1.000
    Co3      Co       0.25000    0.75000    0.50000    1.000
    Co4      Co       0.75000    0.75000    0.00000    1.000
    K1       K        0.50000    0.25132    0.75000    1.000
    K2       K        0.00000    0.75132    0.75000    1.000
    K3       K        0.50000    0.74868    0.25000    1.000
    K4       K        0.00000    0.24868    0.25000    1.000
