# CIF file generated by openbabel 3.1.0, see https://openbabel.org
data_I
_chemical_name_common 'WAZQUL_clean'
_cell_length_a 13.159
_cell_length_b 14.04
_cell_length_c 16.007
_cell_angle_alpha 90
_cell_angle_beta 108.234
_cell_angle_gamma 90
_space_group_name_H-M_alt 'P 1'
_space_group_name_Hall 'P 1'
loop_
    _symmetry_equiv_pos_as_xyz
    x,y,z
loop_
    _atom_site_label
    _atom_site_type_symbol
    _atom_site_fract_x
    _atom_site_fract_y
    _atom_site_fract_z
    _atom_site_occupancy
    Ce1      Ce       0.38626    0.02145    0.08447    1.000
    Ce2      Ce       0.11374    0.52145    0.41553    1.000
    Ce3      Ce       0.61374    0.97855    0.91553    1.000
    Ce4      Ce       0.88626    0.47855    0.58447    1.000
    B1       B        0.13630    0.88010    0.76090    1.000
    B2       B        0.22600    0.89770    0.70600    1.000
    B3       B        0.32290    0.81200    0.73780    1.000
    B4       B        0.29500    0.73650    0.81550    1.000
    B5       B        0.17720    0.77940    0.82940    1.000
    B6       B        0.07500    0.76700    0.73090    1.000
    B7       B        0.10700    0.84140    0.65210    1.000
    B8       B        0.22300    0.79960    0.63850    1.000
    B9       B        0.26370    0.70030    0.70650    1.000
    B10      B        0.17800    0.68020    0.76340    1.000
    B11      B        0.37720    0.04650    0.44720    1.000
    B12      B        0.39550    0.92880    0.47390    1.000
    B13      B        0.52410    0.88990    0.47010    1.000
    B14      B        0.58710    0.99180    0.44150    1.000
    B15      B        0.49720    0.08800    0.42810    1.000
    B16      B        0.36370    0.38010    0.73910    1.000
    B17      B        0.27400    0.39770    0.79400    1.000
    B18      B        0.17710    0.31200    0.76220    1.000
    B19      B        0.20500    0.23650    0.68450    1.000
    B20      B        0.32280    0.27940    0.67060    1.000
    B21      B        0.42500    0.26700    0.76910    1.000
    B22      B        0.39300    0.34140    0.84790    1.000
    B23      B        0.27700    0.29960    0.86150    1.000
    B24      B        0.23630    0.20030    0.79350    1.000
    B25      B        0.32200    0.18020    0.73660    1.000
    B26      B        0.12280    0.54650    0.05280    1.000
    B27      B        0.10450    0.42880    0.02610    1.000
    B28      B        0.97590    0.38990    0.02990    1.000
    B29      B        0.91290    0.49180    0.05850    1.000
    B30      B        0.00280    0.58800    0.07190    1.000
    B31      B        0.86370    0.11990    0.23910    1.000
    B32      B        0.77400    0.10230    0.29400    1.000
    B33      B        0.67710    0.18800    0.26220    1.000
    B34      B        0.70500    0.26350    0.18450    1.000
    B35      B        0.82280    0.22060    0.17060    1.000
    B36      B        0.92500    0.23300    0.26910    1.000
    B37      B        0.89300    0.15860    0.34790    1.000
    B38      B        0.77700    0.20040    0.36150    1.000
    B39      B        0.73630    0.29970    0.29350    1.000
    B40      B        0.82200    0.31980    0.23660    1.000
    B41      B        0.62280    0.95350    0.55280    1.000
    B42      B        0.60450    0.07120    0.52610    1.000
    B43      B        0.47590    0.11010    0.52990    1.000
    B44      B        0.41290    0.00820    0.55850    1.000
    B45      B        0.50280    0.91200    0.57190    1.000
    B46      B        0.63630    0.61990    0.26090    1.000
    B47      B        0.72600    0.60230    0.20600    1.000
    B48      B        0.82290    0.68800    0.23780    1.000
    B49      B        0.79500    0.76350    0.31550    1.000
    B50      B        0.67720    0.72060    0.32940    1.000
    B51      B        0.57500    0.73300    0.23090    1.000
    B52      B        0.60700    0.65860    0.15210    1.000
    B53      B        0.72300    0.70040    0.13850    1.000
    B54      B        0.76370    0.79970    0.20650    1.000
    B55      B        0.67800    0.81980    0.26340    1.000
    B56      B        0.87720    0.45350    0.94720    1.000
    B57      B        0.89550    0.57120    0.97390    1.000
    B58      B        0.02410    0.61010    0.97010    1.000
    B59      B        0.08710    0.50820    0.94150    1.000
    B60      B        0.99720    0.41200    0.92810    1.000
    H1       H        0.09360    0.94190    0.77900    1.000
    H2       H        0.24420    0.97150    0.68820    1.000
    H3       H        0.40710    0.82890    0.74060    1.000
    H4       H        0.35920    0.70220    0.87040    1.000
    H5       H        0.16080    0.77410    0.89380    1.000
    H6       H        0.99090    0.75050    0.72870    1.000
    H7       H        0.04430    0.87540    0.59600    1.000
    H8       H        0.23840    0.80490    0.57380    1.000
    H9       H        0.30620    0.63960    0.68650    1.000
    H10      H        0.16270    0.60590    0.78230    1.000
    H11      H        0.29670    0.07680    0.41120    1.000
    H12      H        0.32400    0.88070    0.45480    1.000
    H13      H        0.53890    0.81640    0.44950    1.000
    H14      H        0.64300    0.98680    0.40130    1.000
    H15      H        0.49470    0.14660    0.38000    1.000
    H16      H        0.40640    0.44190    0.72100    1.000
    H17      H        0.25580    0.47150    0.81180    1.000
    H18      H        0.09290    0.32890    0.75940    1.000
    H19      H        0.14080    0.20220    0.62960    1.000
    H20      H        0.33920    0.27410    0.60620    1.000
    H21      H        0.50910    0.25050    0.77130    1.000
    H22      H        0.45570    0.37540    0.90400    1.000
    H23      H        0.26160    0.30490    0.92620    1.000
    H24      H        0.19380    0.13960    0.81350    1.000
    H25      H        0.33730    0.10590    0.71770    1.000
    H26      H        0.20330    0.57680    0.08880    1.000
    H27      H        0.17600    0.38070    0.04520    1.000
    H28      H        0.96110    0.31640    0.05050    1.000
    H29      H        0.85700    0.48680    0.09870    1.000
    H30      H        0.00530    0.64660    0.12000    1.000
    H31      H        0.90640    0.05810    0.22100    1.000
    H32      H        0.75580    0.02850    0.31180    1.000
    H33      H        0.59290    0.17110    0.25940    1.000
    H34      H        0.64080    0.29780    0.12960    1.000
    H35      H        0.83920    0.22590    0.10620    1.000
    H36      H        0.00910    0.24950    0.27130    1.000
    H37      H        0.95570    0.12460    0.40400    1.000
    H38      H        0.76160    0.19510    0.42620    1.000
    H39      H        0.69380    0.36040    0.31350    1.000
    H40      H        0.83730    0.39410    0.21770    1.000
    H41      H        0.70330    0.92320    0.58880    1.000
    H42      H        0.67600    0.11930    0.54520    1.000
    H43      H        0.46110    0.18360    0.55050    1.000
    H44      H        0.35700    0.01320    0.59870    1.000
    H45      H        0.50530    0.85340    0.62000    1.000
    H46      H        0.59360    0.55810    0.27900    1.000
    H47      H        0.74420    0.52850    0.18820    1.000
    H48      H        0.90710    0.67110    0.24060    1.000
    H49      H        0.85920    0.79780    0.37040    1.000
    H50      H        0.66080    0.72590    0.39380    1.000
    H51      H        0.49090    0.74950    0.22870    1.000
    H52      H        0.54430    0.62460    0.09600    1.000
    H53      H        0.73840    0.69510    0.07380    1.000
    H54      H        0.80620    0.86040    0.18650    1.000
    H55      H        0.66270    0.89410    0.28230    1.000
    H56      H        0.79670    0.42320    0.91120    1.000
    H57      H        0.82400    0.61930    0.95480    1.000
    H58      H        0.03890    0.68360    0.94950    1.000
    H59      H        0.14300    0.51320    0.90130    1.000
    H60      H        0.99470    0.35340    0.88000    1.000
    C1       C        0.26600    0.85370    0.80980    1.000
    C2       C        0.13260    0.72460    0.65920    1.000
    C3       C        0.33420    0.91870    0.88450    1.000
    C4       C        0.06630    0.65730    0.58620    1.000
    C5       C        0.45130    0.97430    0.40140    1.000
    C6       C        0.40300    0.94910    0.30300    1.000
    C7       C        0.23400    0.35370    0.69020    1.000
    C8       C        0.36740    0.22460    0.84080    1.000
    C9       C        0.16580    0.41870    0.61550    1.000
    C10      C        0.43370    0.15730    0.91380    1.000
    C11      C        0.04870    0.47430    0.09860    1.000
    C12      C        0.09700    0.44910    0.19700    1.000
    C13      C        0.73400    0.14630    0.19020    1.000
    C14      C        0.86740    0.27540    0.34080    1.000
    C15      C        0.66580    0.08130    0.11550    1.000
    C16      C        0.93370    0.34270    0.41380    1.000
    C17      C        0.54870    0.02570    0.59860    1.000
    C18      C        0.59700    0.05090    0.69700    1.000
    C19      C        0.76600    0.64630    0.30980    1.000
    C20      C        0.63260    0.77540    0.15920    1.000
    C21      C        0.83420    0.58130    0.38450    1.000
    C22      C        0.56630    0.84270    0.08620    1.000
    C23      C        0.95130    0.52570    0.90140    1.000
    C24      C        0.90300    0.55090    0.80300    1.000
    O1       O        0.29200    0.94310    0.94140    1.000
    O2       O        0.42530    0.94050    0.88210    1.000
    O3       O        0.98070    0.62880    0.59310    1.000
    O4       O        0.10730    0.63820    0.52780    1.000
    O5       O        0.42560    0.00110    0.24830    1.000
    O6       O        0.34610    0.87630    0.28740    1.000
    O7       O        0.20800    0.44310    0.55860    1.000
    O8       O        0.07470    0.44050    0.61790    1.000
    O9       O        0.51930    0.12880    0.90690    1.000
    O10      O        0.39270    0.13820    0.97220    1.000
    O11      O        0.07440    0.50110    0.25170    1.000
    O12      O        0.15390    0.37630    0.21260    1.000
    O13      O        0.70800    0.05690    0.05860    1.000
    O14      O        0.57470    0.05950    0.11790    1.000
    O15      O        0.01930    0.37120    0.40690    1.000
    O16      O        0.89270    0.36180    0.47220    1.000
    O17      O        0.57440    0.99890    0.75170    1.000
    O18      O        0.65390    0.12370    0.71260    1.000
    O19      O        0.79200    0.55690    0.44140    1.000
    O20      O        0.92530    0.55950    0.38210    1.000
    O21      O        0.48070    0.87120    0.09310    1.000
    O22      O        0.60730    0.86180    0.02780    1.000
    O23      O        0.92560    0.49890    0.74830    1.000
    O24      O        0.84610    0.62370    0.78740    1.000
