# CIF file generated by openbabel 3.1.0, see https://openbabel.org
data_I
_chemical_name_common 'image0'
_cell_length_a 29.9258
_cell_length_b 21.0418
_cell_length_c 19.4326
_cell_angle_alpha 90
_cell_angle_beta 94
_cell_angle_gamma 90
_space_group_name_H-M_alt 'P 1'
_space_group_name_Hall 'P 1'
loop_
    _symmetry_equiv_pos_as_xyz
    x,y,z
loop_
    _atom_site_label
    _atom_site_type_symbol
    _atom_site_fract_x
    _atom_site_fract_y
    _atom_site_fract_z
    _atom_site_occupancy
    Er1      Er       0.27659    0.17500    0.05766    1.000
    Er2      Er       0.18199    0.82999    0.96255    1.000
    O1       O        0.27910    0.06970    0.01680    1.000
    O2       O        0.33970    0.10260    0.07080    1.000
    O3       O        0.25820    0.84000    0.96620    1.000
    O4       O        0.30910    0.77170    0.00230    1.000
    O5       O        0.62853    0.72300    0.38160    1.000
    O6       O        0.69703    0.70960    0.35180    1.000
    O7       O        0.68897    0.80750    0.04490    1.000
    O8       O        0.73144    0.74320    0.11160    1.000
    O9       O        0.14720    0.90890    0.89150    1.000
    O10      O        0.19080    0.94390    0.97380    1.000
    O11      O        0.21660    0.18450    0.98070    1.000
    O12      O        0.17170    0.24420    0.91220    1.000
    C1       C        0.31720    0.05850    0.04310    1.000
    C2       C        0.33370    0.99150    0.04660    1.000
    C3       C        0.37660    0.97810    0.07740    1.000
    H1       H        0.39440    0.01110    0.09580    1.000
    C4       C        0.39260    0.91690    0.08080    1.000
    C5       C        0.36480    0.86710    0.05300    1.000
    H2       H        0.37530    0.82550    0.05470    1.000
    C6       C        0.32310    0.87970    0.02390    1.000
    C7       C        0.30780    0.94160    0.01830    1.000
    H3       H        0.28000    0.95000    0.99560    1.000
    C8       C        0.29460    0.82600    0.99500    1.000
    C9       C        0.43600    0.90170    0.11130    1.000
    C10      C        0.47290    0.88580    0.13310    1.000
    C11      C        0.51410    0.86520    0.15860    1.000
    C12      C        0.55010    0.84410    0.17680    1.000
    C13      C        0.59350    0.81460    0.19230    1.000
    C14      C        0.60450    0.78840    0.25740    1.000
    H4       H        0.58470    0.79130    0.29210    1.000
    C15      C        0.64560    0.75800    0.26930    1.000
    C16      C        0.67490    0.75510    0.21820    1.000
    H5       H        0.70160    0.73290    0.22680    1.000
    C17      C        0.66640    0.78430    0.15300    1.000
    C18      C        0.62320    0.81290    0.14180    1.000
    H6       H        0.61500    0.83080    0.09900    1.000
    C19      C        0.65790    0.72850    0.33840    1.000
    C20      C        0.69840    0.77880    0.10020    1.000
    C21      C        0.16310    0.95440    0.92530    1.000
    C22      C        0.14740    0.01940    0.90720    1.000
    C23      C        0.17250    0.07290    0.93130    1.000
    H7       H        0.19890    0.06740    0.95890    1.000
    C24      C        0.15750    0.13410    0.91330    1.000
    C25      C        0.11870    0.14310    0.87260    1.000
    H8       H        0.10900    0.18390    0.86090    1.000
    C26      C        0.09380    0.08990    0.84860    1.000
    C27      C        0.10980    0.02650    0.86620    1.000
    H9       H        0.09410    0.99100    0.84920    1.000
    C28      C        0.18400    0.19160    0.93740    1.000
    C29      C        0.05380    0.09580    0.80320    1.000
    C30      C        0.01980    0.09800    0.77210    1.000
    Er3      Er       0.77659    0.67500    0.05766    1.000
    Er4      Er       0.68199    0.32999    0.96255    1.000
    O13      O        0.77910    0.56970    0.01680    1.000
    O14      O        0.83970    0.60260    0.07080    1.000
    O15      O        0.75820    0.34000    0.96620    1.000
    O16      O        0.80910    0.27170    0.00230    1.000
    O17      O        0.12853    0.22300    0.38160    1.000
    O18      O        0.19703    0.20960    0.35180    1.000
    O19      O        0.18897    0.30750    0.04490    1.000
    O20      O        0.23144    0.24320    0.11160    1.000
    O21      O        0.64720    0.40890    0.89150    1.000
    O22      O        0.69080    0.44390    0.97380    1.000
    O23      O        0.71660    0.68450    0.98070    1.000
    O24      O        0.67170    0.74420    0.91220    1.000
    C31      C        0.81720    0.55850    0.04310    1.000
    C32      C        0.83370    0.49150    0.04660    1.000
    C33      C        0.87660    0.47810    0.07740    1.000
    H10      H        0.89440    0.51110    0.09580    1.000
    C34      C        0.89260    0.41690    0.08080    1.000
    C35      C        0.86480    0.36710    0.05300    1.000
    H11      H        0.87530    0.32550    0.05470    1.000
    C36      C        0.82310    0.37970    0.02390    1.000
    C37      C        0.80780    0.44160    0.01830    1.000
    H12      H        0.78000    0.45000    0.99560    1.000
    C38      C        0.79460    0.32600    0.99500    1.000
    C39      C        0.93600    0.40170    0.11130    1.000
    C40      C        0.97290    0.38580    0.13310    1.000
    C41      C        0.01410    0.36520    0.15860    1.000
    C42      C        0.05010    0.34410    0.17680    1.000
    C43      C        0.09350    0.31460    0.19230    1.000
    C44      C        0.10450    0.28840    0.25740    1.000
    H13      H        0.08470    0.29130    0.29210    1.000
    C45      C        0.14560    0.25800    0.26930    1.000
    C46      C        0.17490    0.25510    0.21820    1.000
    H14      H        0.20160    0.23290    0.22680    1.000
    C47      C        0.16640    0.28430    0.15300    1.000
    C48      C        0.12320    0.31290    0.14180    1.000
    H15      H        0.11500    0.33080    0.09900    1.000
    C49      C        0.15790    0.22850    0.33840    1.000
    C50      C        0.19840    0.27880    0.10020    1.000
    C51      C        0.66310    0.45440    0.92530    1.000
    C52      C        0.64740    0.51940    0.90720    1.000
    C53      C        0.67250    0.57290    0.93130    1.000
    H16      H        0.69890    0.56740    0.95890    1.000
    C54      C        0.65750    0.63410    0.91330    1.000
    C55      C        0.61870    0.64310    0.87260    1.000
    H17      H        0.60900    0.68390    0.86090    1.000
    C56      C        0.59380    0.58990    0.84860    1.000
    C57      C        0.60980    0.52650    0.86620    1.000
    H18      H        0.59410    0.49100    0.84920    1.000
    C58      C        0.68400    0.69160    0.93740    1.000
    C59      C        0.55380    0.59580    0.80320    1.000
    C60      C        0.51980    0.59800    0.77210    1.000
    Er5      Er       0.72341    0.17500    0.44234    1.000
    Er6      Er       0.81801    0.82999    0.53745    1.000
    O25      O        0.72090    0.06970    0.48320    1.000
    O26      O        0.66030    0.10260    0.42920    1.000
    O27      O        0.74180    0.84000    0.53380    1.000
    O28      O        0.69090    0.77170    0.49770    1.000
    O29      O        0.37147    0.72300    0.11840    1.000
    O30      O        0.30297    0.70960    0.14820    1.000
    O31      O        0.31103    0.80750    0.45510    1.000
    O32      O        0.26856    0.74320    0.38840    1.000
    O33      O        0.85280    0.90890    0.60850    1.000
    O34      O        0.80920    0.94390    0.52620    1.000
    O35      O        0.78340    0.18450    0.51930    1.000
    O36      O        0.82830    0.24420    0.58780    1.000
    C61      C        0.68280    0.05850    0.45690    1.000
    C62      C        0.66630    0.99150    0.45340    1.000
    C63      C        0.62340    0.97810    0.42260    1.000
    H19      H        0.60560    0.01110    0.40420    1.000
    C64      C        0.60740    0.91690    0.41920    1.000
    C65      C        0.63520    0.86710    0.44700    1.000
    H20      H        0.62470    0.82550    0.44530    1.000
    C66      C        0.67690    0.87970    0.47610    1.000
    C67      C        0.69220    0.94160    0.48170    1.000
    H21      H        0.72000    0.95000    0.50440    1.000
    C68      C        0.70540    0.82600    0.50500    1.000
    C69      C        0.56400    0.90170    0.38870    1.000
    C70      C        0.52710    0.88580    0.36690    1.000
    C71      C        0.48590    0.86520    0.34140    1.000
    C72      C        0.44990    0.84410    0.32320    1.000
    C73      C        0.40650    0.81460    0.30770    1.000
    C74      C        0.39550    0.78840    0.24260    1.000
    H22      H        0.41530    0.79130    0.20790    1.000
    C75      C        0.35440    0.75800    0.23070    1.000
    C76      C        0.32510    0.75510    0.28180    1.000
    H23      H        0.29840    0.73290    0.27320    1.000
    C77      C        0.33360    0.78430    0.34700    1.000
    C78      C        0.37680    0.81290    0.35820    1.000
    H24      H        0.38500    0.83080    0.40100    1.000
    C79      C        0.34210    0.72850    0.16160    1.000
    C80      C        0.30160    0.77880    0.39980    1.000
    C81      C        0.83690    0.95440    0.57470    1.000
    C82      C        0.85260    0.01940    0.59280    1.000
    C83      C        0.82750    0.07290    0.56870    1.000
    H25      H        0.80110    0.06740    0.54110    1.000
    C84      C        0.84250    0.13410    0.58670    1.000
    C85      C        0.88130    0.14310    0.62740    1.000
    H26      H        0.89100    0.18390    0.63910    1.000
    C86      C        0.90620    0.08990    0.65140    1.000
    C87      C        0.89020    0.02650    0.63380    1.000
    H27      H        0.90590    0.99100    0.65080    1.000
    C88      C        0.81600    0.19160    0.56260    1.000
    C89      C        0.94620    0.09580    0.69680    1.000
    C90      C        0.98020    0.09800    0.72790    1.000
    Er7      Er       0.22341    0.67500    0.44234    1.000
    Er8      Er       0.31801    0.32999    0.53745    1.000
    O37      O        0.22090    0.56970    0.48320    1.000
    O38      O        0.16030    0.60260    0.42920    1.000
    O39      O        0.24180    0.34000    0.53380    1.000
    O40      O        0.19090    0.27170    0.49770    1.000
    O41      O        0.87147    0.22300    0.11840    1.000
    O42      O        0.80297    0.20960    0.14820    1.000
    O43      O        0.81103    0.30750    0.45510    1.000
    O44      O        0.76856    0.24320    0.38840    1.000
    O45      O        0.35280    0.40890    0.60850    1.000
    O46      O        0.30920    0.44390    0.52620    1.000
    O47      O        0.28340    0.68450    0.51930    1.000
    O48      O        0.32830    0.74420    0.58780    1.000
    C91      C        0.18280    0.55850    0.45690    1.000
    C92      C        0.16630    0.49150    0.45340    1.000
    C93      C        0.12340    0.47810    0.42260    1.000
    H28      H        0.10560    0.51110    0.40420    1.000
    C94      C        0.10740    0.41690    0.41920    1.000
    C95      C        0.13520    0.36710    0.44700    1.000
    H29      H        0.12470    0.32550    0.44530    1.000
    C96      C        0.17690    0.37970    0.47610    1.000
    C97      C        0.19220    0.44160    0.48170    1.000
    H30      H        0.22000    0.45000    0.50440    1.000
    C98      C        0.20540    0.32600    0.50500    1.000
    C99      C        0.06400    0.40170    0.38870    1.000
    C100     C        0.02710    0.38580    0.36690    1.000
    C101     C        0.98590    0.36520    0.34140    1.000
    C102     C        0.94990    0.34410    0.32320    1.000
    C103     C        0.90650    0.31460    0.30770    1.000
    C104     C        0.89550    0.28840    0.24260    1.000
    H31      H        0.91530    0.29130    0.20790    1.000
    C105     C        0.85440    0.25800    0.23070    1.000
    C106     C        0.82510    0.25510    0.28180    1.000
    H32      H        0.79840    0.23290    0.27320    1.000
    C107     C        0.83360    0.28430    0.34700    1.000
    C108     C        0.87680    0.31290    0.35820    1.000
    H33      H        0.88500    0.33080    0.40100    1.000
    C109     C        0.84210    0.22850    0.16160    1.000
    C110     C        0.80160    0.27880    0.39980    1.000
    C111     C        0.33690    0.45440    0.57470    1.000
    C112     C        0.35260    0.51940    0.59280    1.000
    C113     C        0.32750    0.57290    0.56870    1.000
    H34      H        0.30110    0.56740    0.54110    1.000
    C114     C        0.34250    0.63410    0.58670    1.000
    C115     C        0.38130    0.64310    0.62740    1.000
    H35      H        0.39100    0.68390    0.63910    1.000
    C116     C        0.40620    0.58990    0.65140    1.000
    C117     C        0.39020    0.52650    0.63380    1.000
    H36      H        0.40590    0.49100    0.65080    1.000
    C118     C        0.31600    0.69160    0.56260    1.000
    C119     C        0.44620    0.59580    0.69680    1.000
    C120     C        0.48020    0.59800    0.72790    1.000
    Er9      Er       0.72341    0.82500    0.94234    1.000
    Er10     Er       0.81801    0.17001    0.03745    1.000
    O49      O        0.72090    0.93030    0.98320    1.000
    O50      O        0.66030    0.89740    0.92920    1.000
    O51      O        0.74180    0.16000    0.03380    1.000
    O52      O        0.69090    0.22830    0.99770    1.000
    O53      O        0.37147    0.27700    0.61840    1.000
    O54      O        0.30297    0.29040    0.64820    1.000
    O55      O        0.31103    0.19250    0.95510    1.000
    O56      O        0.26856    0.25680    0.88840    1.000
    O57      O        0.85280    0.09110    0.10850    1.000
    O58      O        0.80920    0.05610    0.02620    1.000
    O59      O        0.78340    0.81550    0.01930    1.000
    O60      O        0.82830    0.75580    0.08780    1.000
    C121     C        0.68280    0.94150    0.95690    1.000
    C122     C        0.66630    0.00850    0.95340    1.000
    C123     C        0.62340    0.02190    0.92260    1.000
    H37      H        0.60560    0.98890    0.90420    1.000
    C124     C        0.60740    0.08310    0.91920    1.000
    C125     C        0.63520    0.13290    0.94700    1.000
    H38      H        0.62470    0.17450    0.94530    1.000
    C126     C        0.67690    0.12030    0.97610    1.000
    C127     C        0.69220    0.05840    0.98170    1.000
    H39      H        0.72000    0.05000    0.00440    1.000
    C128     C        0.70540    0.17400    0.00500    1.000
    C129     C        0.56400    0.09830    0.88870    1.000
    C130     C        0.52710    0.11420    0.86690    1.000
    C131     C        0.48590    0.13480    0.84140    1.000
    C132     C        0.44990    0.15590    0.82320    1.000
    C133     C        0.40650    0.18540    0.80770    1.000
    C134     C        0.39550    0.21160    0.74260    1.000
    H40      H        0.41530    0.20870    0.70790    1.000
    C135     C        0.35440    0.24200    0.73070    1.000
    C136     C        0.32510    0.24490    0.78180    1.000
    H41      H        0.29840    0.26710    0.77320    1.000
    C137     C        0.33360    0.21570    0.84700    1.000
    C138     C        0.37680    0.18710    0.85820    1.000
    H42      H        0.38500    0.16920    0.90100    1.000
    C139     C        0.34210    0.27150    0.66160    1.000
    C140     C        0.30160    0.22120    0.89980    1.000
    C141     C        0.83690    0.04560    0.07470    1.000
    C142     C        0.85260    0.98060    0.09280    1.000
    C143     C        0.82750    0.92710    0.06870    1.000
    H43      H        0.80110    0.93260    0.04110    1.000
    C144     C        0.84250    0.86590    0.08670    1.000
    C145     C        0.88130    0.85690    0.12740    1.000
    H44      H        0.89100    0.81610    0.13910    1.000
    C146     C        0.90620    0.91010    0.15140    1.000
    C147     C        0.89020    0.97350    0.13380    1.000
    H45      H        0.90590    0.00900    0.15080    1.000
    C148     C        0.81600    0.80840    0.06260    1.000
    C149     C        0.94620    0.90420    0.19680    1.000
    C150     C        0.98020    0.90200    0.22790    1.000
    Er11     Er       0.22341    0.32500    0.94234    1.000
    Er12     Er       0.31801    0.67001    0.03745    1.000
    O61      O        0.22090    0.43030    0.98320    1.000
    O62      O        0.16030    0.39740    0.92920    1.000
    O63      O        0.24180    0.66000    0.03380    1.000
    O64      O        0.19090    0.72830    0.99770    1.000
    O65      O        0.87147    0.77700    0.61840    1.000
    O66      O        0.80297    0.79040    0.64820    1.000
    O67      O        0.81103    0.69250    0.95510    1.000
    O68      O        0.76856    0.75680    0.88840    1.000
    O69      O        0.35280    0.59110    0.10850    1.000
    O70      O        0.30920    0.55610    0.02620    1.000
    O71      O        0.28340    0.31550    0.01930    1.000
    O72      O        0.32830    0.25580    0.08780    1.000
    C151     C        0.18280    0.44150    0.95690    1.000
    C152     C        0.16630    0.50850    0.95340    1.000
    C153     C        0.12340    0.52190    0.92260    1.000
    H46      H        0.10560    0.48890    0.90420    1.000
    C154     C        0.10740    0.58310    0.91920    1.000
    C155     C        0.13520    0.63290    0.94700    1.000
    H47      H        0.12470    0.67450    0.94530    1.000
    C156     C        0.17690    0.62030    0.97610    1.000
    C157     C        0.19220    0.55840    0.98170    1.000
    H48      H        0.22000    0.55000    0.00440    1.000
    C158     C        0.20540    0.67400    0.00500    1.000
    C159     C        0.06400    0.59830    0.88870    1.000
    C160     C        0.02710    0.61420    0.86690    1.000
    C161     C        0.98590    0.63480    0.84140    1.000
    C162     C        0.94990    0.65590    0.82320    1.000
    C163     C        0.90650    0.68540    0.80770    1.000
    C164     C        0.89550    0.71160    0.74260    1.000
    H49      H        0.91530    0.70870    0.70790    1.000
    C165     C        0.85440    0.74200    0.73070    1.000
    C166     C        0.82510    0.74490    0.78180    1.000
    H50      H        0.79840    0.76710    0.77320    1.000
    C167     C        0.83360    0.71570    0.84700    1.000
    C168     C        0.87680    0.68710    0.85820    1.000
    H51      H        0.88500    0.66920    0.90100    1.000
    C169     C        0.84210    0.77150    0.66160    1.000
    C170     C        0.80160    0.72120    0.89980    1.000
    C171     C        0.33690    0.54560    0.07470    1.000
    C172     C        0.35260    0.48060    0.09280    1.000
    C173     C        0.32750    0.42710    0.06870    1.000
    H52      H        0.30110    0.43260    0.04110    1.000
    C174     C        0.34250    0.36590    0.08670    1.000
    C175     C        0.38130    0.35690    0.12740    1.000
    H53      H        0.39100    0.31610    0.13910    1.000
    C176     C        0.40620    0.41010    0.15140    1.000
    C177     C        0.39020    0.47350    0.13380    1.000
    H54      H        0.40590    0.50900    0.15080    1.000
    C178     C        0.31600    0.30840    0.06260    1.000
    C179     C        0.44620    0.40420    0.19680    1.000
    C180     C        0.48020    0.40200    0.22790    1.000
    Er13     Er       0.27659    0.82500    0.55766    1.000
    Er14     Er       0.18199    0.17001    0.46255    1.000
    O73      O        0.27910    0.93030    0.51680    1.000
    O74      O        0.33970    0.89740    0.57080    1.000
    O75      O        0.25820    0.16000    0.46620    1.000
    O76      O        0.30910    0.22830    0.50230    1.000
    O77      O        0.62853    0.27700    0.88160    1.000
    O78      O        0.69703    0.29040    0.85180    1.000
    O79      O        0.68897    0.19250    0.54490    1.000
    O80      O        0.73144    0.25680    0.61160    1.000
    O81      O        0.14720    0.09110    0.39150    1.000
    O82      O        0.19080    0.05610    0.47380    1.000
    O83      O        0.21660    0.81550    0.48070    1.000
    O84      O        0.17170    0.75580    0.41220    1.000
    C181     C        0.31720    0.94150    0.54310    1.000
    C182     C        0.33370    0.00850    0.54660    1.000
    C183     C        0.37660    0.02190    0.57740    1.000
    H55      H        0.39440    0.98890    0.59580    1.000
    C184     C        0.39260    0.08310    0.58080    1.000
    C185     C        0.36480    0.13290    0.55300    1.000
    H56      H        0.37530    0.17450    0.55470    1.000
    C186     C        0.32310    0.12030    0.52390    1.000
    C187     C        0.30780    0.05840    0.51830    1.000
    H57      H        0.28000    0.05000    0.49560    1.000
    C188     C        0.29460    0.17400    0.49500    1.000
    C189     C        0.43600    0.09830    0.61130    1.000
    C190     C        0.47290    0.11420    0.63310    1.000
    C191     C        0.51410    0.13480    0.65860    1.000
    C192     C        0.55010    0.15590    0.67680    1.000
    C193     C        0.59350    0.18540    0.69230    1.000
    C194     C        0.60450    0.21160    0.75740    1.000
    H58      H        0.58470    0.20870    0.79210    1.000
    C195     C        0.64560    0.24200    0.76930    1.000
    C196     C        0.67490    0.24490    0.71820    1.000
    H59      H        0.70160    0.26710    0.72680    1.000
    C197     C        0.66640    0.21570    0.65300    1.000
    C198     C        0.62320    0.18710    0.64180    1.000
    H60      H        0.61500    0.16920    0.59900    1.000
    C199     C        0.65790    0.27150    0.83840    1.000
    C200     C        0.69840    0.22120    0.60020    1.000
    C201     C        0.16310    0.04560    0.42530    1.000
    C202     C        0.14740    0.98060    0.40720    1.000
    C203     C        0.17250    0.92710    0.43130    1.000
    H61      H        0.19890    0.93260    0.45890    1.000
    C204     C        0.15750    0.86590    0.41330    1.000
    C205     C        0.11870    0.85690    0.37260    1.000
    H62      H        0.10900    0.81610    0.36090    1.000
    C206     C        0.09380    0.91010    0.34860    1.000
    C207     C        0.10980    0.97350    0.36620    1.000
    H63      H        0.09410    0.00900    0.34920    1.000
    C208     C        0.18400    0.80840    0.43740    1.000
    C209     C        0.05380    0.90420    0.30320    1.000
    C210     C        0.01980    0.90200    0.27210    1.000
    Er15     Er       0.77659    0.32500    0.55766    1.000
    Er16     Er       0.68199    0.67001    0.46255    1.000
    O85      O        0.77910    0.43030    0.51680    1.000
    O86      O        0.83970    0.39740    0.57080    1.000
    O87      O        0.75820    0.66000    0.46620    1.000
    O88      O        0.80910    0.72830    0.50230    1.000
    O89      O        0.12853    0.77700    0.88160    1.000
    O90      O        0.19703    0.79040    0.85180    1.000
    O91      O        0.18897    0.69250    0.54490    1.000
    O92      O        0.23144    0.75680    0.61160    1.000
    O93      O        0.64720    0.59110    0.39150    1.000
    O94      O        0.69080    0.55610    0.47380    1.000
    O95      O        0.71660    0.31550    0.48070    1.000
    O96      O        0.67170    0.25580    0.41220    1.000
    C211     C        0.81720    0.44150    0.54310    1.000
    C212     C        0.83370    0.50850    0.54660    1.000
    C213     C        0.87660    0.52190    0.57740    1.000
    H64      H        0.89440    0.48890    0.59580    1.000
    C214     C        0.89260    0.58310    0.58080    1.000
    C215     C        0.86480    0.63290    0.55300    1.000
    H65      H        0.87530    0.67450    0.55470    1.000
    C216     C        0.82310    0.62030    0.52390    1.000
    C217     C        0.80780    0.55840    0.51830    1.000
    H66      H        0.78000    0.55000    0.49560    1.000
    C218     C        0.79460    0.67400    0.49500    1.000
    C219     C        0.93600    0.59830    0.61130    1.000
    C220     C        0.97290    0.61420    0.63310    1.000
    C221     C        0.01410    0.63480    0.65860    1.000
    C222     C        0.05010    0.65590    0.67680    1.000
    C223     C        0.09350    0.68540    0.69230    1.000
    C224     C        0.10450    0.71160    0.75740    1.000
    H67      H        0.08470    0.70870    0.79210    1.000
    C225     C        0.14560    0.74200    0.76930    1.000
    C226     C        0.17490    0.74490    0.71820    1.000
    H68      H        0.20160    0.76710    0.72680    1.000
    C227     C        0.16640    0.71570    0.65300    1.000
    C228     C        0.12320    0.68710    0.64180    1.000
    H69      H        0.11500    0.66920    0.59900    1.000
    C229     C        0.15790    0.77150    0.83840    1.000
    C230     C        0.19840    0.72120    0.60020    1.000
    C231     C        0.66310    0.54560    0.42530    1.000
    C232     C        0.64740    0.48060    0.40720    1.000
    C233     C        0.67250    0.42710    0.43130    1.000
    H70      H        0.69890    0.43260    0.45890    1.000
    C234     C        0.65750    0.36590    0.41330    1.000
    C235     C        0.61870    0.35690    0.37260    1.000
    H71      H        0.60900    0.31610    0.36090    1.000
    C236     C        0.59380    0.41010    0.34860    1.000
    C237     C        0.60980    0.47350    0.36620    1.000
    H72      H        0.59410    0.50900    0.34920    1.000
    C238     C        0.68400    0.30840    0.43740    1.000
    C239     C        0.55380    0.40420    0.30320    1.000
    C240     C        0.51980    0.40200    0.27210    1.000
