# CIF file generated by openbabel 3.1.0, see https://openbabel.org
data_I
_chemical_name_common 'image0'
_cell_length_a 9.461
_cell_length_b 9.4028
_cell_length_c 20.963
_cell_angle_alpha 90
_cell_angle_beta 100.186
_cell_angle_gamma 90
_space_group_name_H-M_alt 'P 1'
_space_group_name_Hall 'P 1'
loop_
    _symmetry_equiv_pos_as_xyz
    x,y,z
loop_
    _atom_site_label
    _atom_site_type_symbol
    _atom_site_fract_x
    _atom_site_fract_y
    _atom_site_fract_z
    _atom_site_occupancy
    O1       O        0.24670    0.15010    0.41042    1.000
    In1      In       0.37242    0.33423    0.40330    1.000
    In2      In       0.12489    0.16450    0.59038    1.000
    P1       P        0.61911    0.58904    0.43992    1.000
    P2       P        0.66610    0.12552    0.44278    1.000
    P3       P        0.20846    0.26340    0.25262    1.000
    P4       P        0.09600    0.11886    0.42294    1.000
    P5       P        0.03491    0.51114    0.39719    1.000
    O2       O        0.33810    0.32410    0.29886    1.000
    O3       O        0.06620    0.17900    0.48677    1.000
    O4       O        0.23340    0.10890    0.23631    1.000
    O5       O        0.49460    0.52390    0.39095    1.000
    O6       O        0.16940    0.35640    0.19323    1.000
    O7       O        0.02710    0.67100    0.40296    1.000
    O8       O        0.06680    0.95970    0.41465    1.000
    O9       O        0.70330    0.69090    0.40464    1.000
    O10      O        0.56160    0.65890    0.49552    1.000
    O11      O        0.18680    0.46490    0.39765    1.000
    O12      O        0.55470    0.20460    0.39651    1.000
    O13      O        0.74410    0.01630    0.41190    1.000
    H1       H        0.09000    0.26000    0.28000    1.000
    H2       H        0.00600    0.19200    0.38000    1.000
    H3       H        0.71300    0.48100    0.46200    1.000
    H4       H        0.98700    0.43900    0.44700    1.000
    O14      O        0.93670    0.45660    0.33600    1.000
    H5       H        0.85400    0.48220    0.33630    1.000
    O15      O        0.76990    0.23360    0.47950    1.000
    H6       H        0.85230    0.21280    0.47590    1.000
    H7       H        0.59200    0.04700    0.48500    1.000
    O16      O        0.75330    0.65010    0.08958    1.000
    In3      In       0.62758    0.83423    0.09670    1.000
    In4      In       0.87511    0.66450    0.90962    1.000
    P6       P        0.38089    0.08904    0.06008    1.000
    P7       P        0.33390    0.62552    0.05722    1.000
    P8       P        0.79154    0.76340    0.24738    1.000
    P9       P        0.90400    0.61886    0.07706    1.000
    P10      P        0.96509    0.01114    0.10281    1.000
    O17      O        0.66190    0.82410    0.20114    1.000
    O18      O        0.93380    0.67900    0.01323    1.000
    O19      O        0.76660    0.60890    0.26369    1.000
    O20      O        0.50540    0.02390    0.10905    1.000
    O21      O        0.83060    0.85640    0.30677    1.000
    O22      O        0.97290    0.17100    0.09704    1.000
    O23      O        0.93320    0.45970    0.08535    1.000
    O24      O        0.29670    0.19090    0.09536    1.000
    O25      O        0.43840    0.15890    0.00448    1.000
    O26      O        0.81320    0.96490    0.10235    1.000
    O27      O        0.44530    0.70460    0.10349    1.000
    O28      O        0.25590    0.51630    0.08810    1.000
    H8       H        0.91000    0.76000    0.22000    1.000
    H9       H        0.99400    0.69200    0.12000    1.000
    H10      H        0.28700    0.98100    0.03800    1.000
    H11      H        0.01300    0.93900    0.05300    1.000
    O29      O        0.06330    0.95660    0.16400    1.000
    H12      H        0.14600    0.98220    0.16370    1.000
    O30      O        0.23010    0.73360    0.02050    1.000
    H13      H        0.14770    0.71280    0.02410    1.000
    H14      H        0.40800    0.54700    0.01500    1.000
    O31      O        0.75330    0.84990    0.58958    1.000
    In5      In       0.62758    0.66577    0.59670    1.000
    In6      In       0.87511    0.83550    0.40962    1.000
    P11      P        0.38089    0.41096    0.56008    1.000
    P12      P        0.33390    0.87448    0.55722    1.000
    P13      P        0.79154    0.73660    0.74738    1.000
    P14      P        0.90400    0.88114    0.57706    1.000
    P15      P        0.96509    0.48886    0.60281    1.000
    O32      O        0.66190    0.67590    0.70114    1.000
    O33      O        0.93380    0.82100    0.51323    1.000
    O34      O        0.76660    0.89110    0.76369    1.000
    O35      O        0.50540    0.47610    0.60905    1.000
    O36      O        0.83060    0.64360    0.80677    1.000
    O37      O        0.97290    0.32900    0.59704    1.000
    O38      O        0.93320    0.04030    0.58535    1.000
    O39      O        0.29670    0.30910    0.59536    1.000
    O40      O        0.43840    0.34110    0.50448    1.000
    O41      O        0.81320    0.53510    0.60235    1.000
    O42      O        0.44530    0.79540    0.60349    1.000
    O43      O        0.25590    0.98370    0.58810    1.000
    H15      H        0.91000    0.74000    0.72000    1.000
    H16      H        0.99400    0.80800    0.62000    1.000
    H17      H        0.28700    0.51900    0.53800    1.000
    H18      H        0.01300    0.56100    0.55300    1.000
    O44      O        0.06330    0.54340    0.66400    1.000
    H19      H        0.14600    0.51780    0.66370    1.000
    O45      O        0.23010    0.76640    0.52050    1.000
    H20      H        0.14770    0.78720    0.52410    1.000
    H21      H        0.40800    0.95300    0.51500    1.000
    O46      O        0.24670    0.34990    0.91042    1.000
    In7      In       0.37242    0.16577    0.90330    1.000
    In8      In       0.12489    0.33550    0.09038    1.000
    P16      P        0.61911    0.91096    0.93992    1.000
    P17      P        0.66610    0.37448    0.94278    1.000
    P18      P        0.20846    0.23660    0.75262    1.000
    P19      P        0.09600    0.38114    0.92294    1.000
    P20      P        0.03491    0.98886    0.89719    1.000
    O47      O        0.33810    0.17590    0.79886    1.000
    O48      O        0.06620    0.32100    0.98677    1.000
    O49      O        0.23340    0.39110    0.73631    1.000
    O50      O        0.49460    0.97610    0.89095    1.000
    O51      O        0.16940    0.14360    0.69323    1.000
    O52      O        0.02710    0.82900    0.90296    1.000
    O53      O        0.06680    0.54030    0.91465    1.000
    O54      O        0.70330    0.80910    0.90464    1.000
    O55      O        0.56160    0.84110    0.99552    1.000
    O56      O        0.18680    0.03510    0.89765    1.000
    O57      O        0.55470    0.29540    0.89651    1.000
    O58      O        0.74410    0.48370    0.91190    1.000
    H22      H        0.09000    0.24000    0.78000    1.000
    H23      H        0.00600    0.30800    0.88000    1.000
    H24      H        0.71300    0.01900    0.96200    1.000
    H25      H        0.98700    0.06100    0.94700    1.000
    O59      O        0.93670    0.04340    0.83600    1.000
    H26      H        0.85400    0.01780    0.83630    1.000
    O60      O        0.76990    0.26640    0.97950    1.000
    H27      H        0.85230    0.28720    0.97590    1.000
    H28      H        0.59200    0.45300    0.98500    1.000
