# CIF file generated by openbabel 3.1.0, see https://openbabel.org
data_I
_chemical_name_common 'image0'
_cell_length_a 15.707
_cell_length_b 15.707
_cell_length_c 7.204
_cell_angle_alpha 90
_cell_angle_beta 90
_cell_angle_gamma 120
_space_group_name_H-M_alt 'P 1'
_space_group_name_Hall 'P 1'
loop_
    _symmetry_equiv_pos_as_xyz
    x,y,z
loop_
    _atom_site_label
    _atom_site_type_symbol
    _atom_site_fract_x
    _atom_site_fract_y
    _atom_site_fract_z
    _atom_site_occupancy
    Ag1      Ag       0.52846    0.26432    0.99999    1.000
    N1       N        0.51500    0.40390    0.31070    1.000
    N2       N        0.40420    0.51620    0.31190    1.000
    C1       C        0.52210    0.35230    0.20710    1.000
    C2       C        0.35310    0.52290    0.20430    1.000
    N3       N        0.37140    0.37300    0.62580    1.000
    C3       C        0.36550    0.28330    0.66290    1.000
    C4       C        0.27900    0.20570    0.73300    1.000
    C5       C        0.19850    0.21780    0.76700    1.000
    C6       C        0.20450    0.30750    0.73000    1.000
    C7       C        0.29090    0.38510    0.65920    1.000
    C8       C        0.10700    0.24700    0.75500    1.000
    N4       N        0.01850    0.22300    0.77800    1.000
    Ag2      Ag       0.73568    0.26414    0.99999    1.000
    N5       N        0.59610    0.11110    0.31070    1.000
    N6       N        0.48380    0.88800    0.31190    1.000
    C9       C        0.64770    0.16980    0.20710    1.000
    C10      C        0.47710    0.83020    0.20430    1.000
    N7       N        0.62700    0.99840    0.62580    1.000
    C11      C        0.71670    0.08220    0.66290    1.000
    C12      C        0.79430    0.07330    0.73300    1.000
    C13      C        0.78220    0.98070    0.76700    1.000
    C14      C        0.69250    0.89700    0.73000    1.000
    C15      C        0.61490    0.90580    0.65920    1.000
    C16      C        0.75300    0.86000    0.75500    1.000
    N8       N        0.77700    0.79550    0.77800    1.000
    Ag3      Ag       0.73586    0.47154    0.99999    1.000
    N9       N        0.88890    0.48500    0.31070    1.000
    N10      N        0.11200    0.59580    0.31190    1.000
    C17      C        0.83020    0.47790    0.20710    1.000
    C18      C        0.16980    0.64690    0.20430    1.000
    N11      N        0.00160    0.62860    0.62580    1.000
    C19      C        0.91780    0.63450    0.66290    1.000
    C20      C        0.92670    0.72100    0.73300    1.000
    C21      C        0.01930    0.80150    0.76700    1.000
    C22      C        0.10300    0.79550    0.73000    1.000
    C23      C        0.09420    0.70910    0.65920    1.000
    C24      C        0.14000    0.89300    0.75500    1.000
    N12      N        0.20450    0.98150    0.77800    1.000
    Ag4      Ag       0.47154    0.73568    0.00001    1.000
    N13      N        0.48500    0.59610    0.68930    1.000
    N14      N        0.59580    0.48380    0.68810    1.000
    C25      C        0.47790    0.64770    0.79290    1.000
    C26      C        0.64690    0.47710    0.79570    1.000
    N15      N        0.62860    0.62700    0.37420    1.000
    C27      C        0.63450    0.71670    0.33710    1.000
    C28      C        0.72100    0.79430    0.26700    1.000
    C29      C        0.80150    0.78220    0.23300    1.000
    C30      C        0.79550    0.69250    0.27000    1.000
    C31      C        0.70910    0.61490    0.34080    1.000
    C32      C        0.89300    0.75300    0.24500    1.000
    N16      N        0.98150    0.77700    0.22200    1.000
    Ag5      Ag       0.26432    0.73586    0.00001    1.000
    N17      N        0.40390    0.88890    0.68930    1.000
    N18      N        0.51620    0.11200    0.68810    1.000
    C33      C        0.35230    0.83020    0.79290    1.000
    C34      C        0.52290    0.16980    0.79570    1.000
    N19      N        0.37300    0.00160    0.37420    1.000
    C35      C        0.28330    0.91780    0.33710    1.000
    C36      C        0.20570    0.92670    0.26700    1.000
    C37      C        0.21780    0.01930    0.23300    1.000
    C38      C        0.30750    0.10300    0.27000    1.000
    C39      C        0.38510    0.09420    0.34080    1.000
    C40      C        0.24700    0.14000    0.24500    1.000
    N20      N        0.22300    0.20450    0.22200    1.000
    Ag6      Ag       0.26414    0.52846    0.00001    1.000
    N21      N        0.11110    0.51500    0.68930    1.000
    N22      N        0.88800    0.40420    0.68810    1.000
    C41      C        0.16980    0.52210    0.79290    1.000
    C42      C        0.83020    0.35310    0.79570    1.000
    N23      N        0.99840    0.37140    0.37420    1.000
    C43      C        0.08220    0.36550    0.33710    1.000
    C44      C        0.07330    0.27900    0.26700    1.000
    C45      C        0.98070    0.19850    0.23300    1.000
    C46      C        0.89700    0.20450    0.27000    1.000
    C47      C        0.90580    0.29090    0.34080    1.000
    C48      C        0.86000    0.10700    0.24500    1.000
    N24      N        0.79550    0.01850    0.22200    1.000
    Fe1      Fe       0.50000    0.50000    0.50000    1.000
    Fe2      Fe       0.50000    0.00000    0.50000    1.000
    Fe3      Fe       0.00000    0.50000    0.50000    1.000
