# CIF file generated by openbabel 3.1.0, see https://openbabel.org
data_I
_chemical_name_common 'BEXPAX_clean'
_cell_length_a 8.524
_cell_length_b 17.2139
_cell_length_c 17.2139
_cell_angle_alpha 120
_cell_angle_beta 90
_cell_angle_gamma 90
_space_group_name_H-M_alt 'P 1'
_space_group_name_Hall 'P 1'
loop_
    _symmetry_equiv_pos_as_xyz
    x,y,z
loop_
    _atom_site_label
    _atom_site_type_symbol
    _atom_site_fract_x
    _atom_site_fract_y
    _atom_site_fract_z
    _atom_site_occupancy
    Ni1      Ni       0.66667    0.47466    0.47466    1.000
    Ni2      Ni       0.33333    0.00000    0.52534    1.000
    Ni3      Ni       0.00000    0.52534    0.00000    1.000
    H1       H        0.33720    0.23450    0.53360    1.000
    H2       H        0.54740    0.19250    0.30650    1.000
    H3       H        0.46930    0.04390    0.23600    1.000
    H4       H        0.00387    0.29910    0.76550    1.000
    H5       H        0.21407    0.11400    0.80750    1.000
    H6       H        0.13597    0.19210    0.95610    1.000
    H7       H        0.67053    0.46640    0.70090    1.000
    H8       H        0.88073    0.69350    0.88600    1.000
    H9       H        0.80263    0.76400    0.80790    1.000
    H10      H        0.66280    0.70090    0.46640    1.000
    H11      H        0.45260    0.88600    0.69350    1.000
    H12      H        0.53070    0.80790    0.76400    1.000
    H13      H        0.99613    0.53360    0.23450    1.000
    H14      H        0.78593    0.30650    0.19250    1.000
    H15      H        0.86403    0.23600    0.04390    1.000
    H16      H        0.32947    0.76550    0.29910    1.000
    H17      H        0.11927    0.80750    0.11400    1.000
    H18      H        0.19737    0.95610    0.19210    1.000
    C1       C        0.45150    0.22816    0.42734    1.000
    C2       C        0.36380    0.19608    0.47390    1.000
    C3       C        0.35830    0.04792    0.34192    1.000
    C4       C        0.49040    0.17110    0.33793    1.000
    C5       C        0.31640    0.10707    0.43140    1.000
    C6       C        0.44350    0.08190    0.29600    1.000
    C7       C        0.50230    0.32410    0.47358    1.000
    C8       C        0.11817    0.19918    0.77184    1.000
    C9       C        0.03047    0.27782    0.80392    1.000
    C10      C        0.02497    0.29400    0.95208    1.000
    C11      C        0.15707    0.16683    0.82890    1.000
    C12      C        0.98307    0.32433    0.89293    1.000
    C13      C        0.11017    0.21410    0.91810    1.000
    C14      C        0.16897    0.14948    0.67590    1.000
    C15      C        0.78483    0.57266    0.80082    1.000
    C16      C        0.69713    0.52610    0.72218    1.000
    C17      C        0.69163    0.65808    0.70600    1.000
    C18      C        0.82373    0.66207    0.83317    1.000
    C19      C        0.64973    0.56860    0.67567    1.000
    C20      C        0.77683    0.70400    0.78590    1.000
    C21      C        0.83563    0.52642    0.85052    1.000
    C22      C        0.54850    0.80082    0.57266    1.000
    C23      C        0.63620    0.72218    0.52610    1.000
    C24      C        0.64170    0.70600    0.65808    1.000
    C25      C        0.50960    0.83317    0.66207    1.000
    C26      C        0.68360    0.67567    0.56860    1.000
    C27      C        0.55650    0.78590    0.70400    1.000
    C28      C        0.49770    0.85052    0.52642    1.000
    C29      C        0.88183    0.42734    0.22816    1.000
    C30      C        0.96953    0.47390    0.19608    1.000
    C31      C        0.97503    0.34192    0.04792    1.000
    C32      C        0.84293    0.33793    0.17110    1.000
    C33      C        0.01693    0.43140    0.10707    1.000
    C34      C        0.88983    0.29600    0.08190    1.000
    C35      C        0.83103    0.47358    0.32410    1.000
    C36      C        0.21517    0.77184    0.19918    1.000
    C37      C        0.30287    0.80392    0.27782    1.000
    C38      C        0.30837    0.95208    0.29400    1.000
    C39      C        0.17627    0.82890    0.16683    1.000
    C40      C        0.35027    0.89293    0.32433    1.000
    C41      C        0.22317    0.91810    0.21410    1.000
    C42      C        0.16437    0.67590    0.14948    1.000
    O1       O        0.47070    0.37235    0.55732    1.000
    O2       O        0.22910    0.07668    0.47723    1.000
    O3       O        0.57350    0.35116    0.42865    1.000
    O4       O        0.13737    0.18497    0.62765    1.000
    O5       O        0.89577    0.40055    0.92332    1.000
    O6       O        0.24017    0.07749    0.64884    1.000
    O7       O        0.80403    0.44268    0.81503    1.000
    O8       O        0.56243    0.52277    0.59945    1.000
    O9       O        0.90683    0.57135    0.92251    1.000
    O10      O        0.52930    0.81503    0.44268    1.000
    O11      O        0.77090    0.59945    0.52277    1.000
    O12      O        0.42650    0.92251    0.57135    1.000
    O13      O        0.86263    0.55732    0.37235    1.000
    O14      O        0.10423    0.47723    0.07668    1.000
    O15      O        0.75983    0.42865    0.35116    1.000
    O16      O        0.19597    0.62765    0.18497    1.000
    O17      O        0.43757    0.92332    0.40055    1.000
    O18      O        0.09317    0.64884    0.07749    1.000
