# CIF file generated by openbabel 3.1.0, see https://openbabel.org
data_I
_chemical_name_common 'image0'
_cell_length_a 14.37
_cell_length_b 28.431
_cell_length_c 17.883
_cell_angle_alpha 90
_cell_angle_beta 100.673
_cell_angle_gamma 90
_space_group_name_H-M_alt 'P 1'
_space_group_name_Hall 'P 1'
loop_
    _symmetry_equiv_pos_as_xyz
    x,y,z
loop_
    _atom_site_label
    _atom_site_type_symbol
    _atom_site_fract_x
    _atom_site_fract_y
    _atom_site_fract_z
    _atom_site_occupancy
    Co1      Co       0.13656    0.13466    0.44267    1.000
    Co2      Co       0.51161    0.14920    0.53366    1.000
    Na1      Na       0.33179    0.16695    0.39110    1.000
    C1       C        0.26200    0.03582    0.92530    1.000
    C2       C        0.22470    0.99111    0.93130    1.000
    C3       C        0.26520    0.96118    0.99090    1.000
    C4       C        0.34620    0.97489    0.04180    1.000
    C5       C        0.38680    0.01924    0.03330    1.000
    C6       C        0.34330    0.05004    0.97640    1.000
    C7       C        0.21180    0.06968    0.86680    1.000
    H1       H        0.14640    0.06010    0.85040    1.000
    H2       H        0.21260    0.10100    0.88830    1.000
    C8       C        0.14110    0.97424    0.87390    1.000
    H3       H        0.14030    0.98940    0.82520    1.000
    H4       H        0.14470    0.94050    0.86710    1.000
    C9       C        0.21570    0.91462    0.99870    1.000
    H5       H        0.23730    0.90130    0.04890    1.000
    H6       H        0.14770    0.91910    0.99120    1.000
    C10      C        0.38990    0.94294    0.10630    1.000
    H7       H        0.45010    0.95560    0.13210    1.000
    H8       H        0.34830    0.94000    0.14300    1.000
    C11      C        0.47520    0.03393    0.08730    1.000
    H9       H        0.52050    0.00830    0.09400    1.000
    H10      H        0.50390    0.06060    0.06640    1.000
    C12      C        0.38150    0.09900    0.97140    1.000
    H11      H        0.44990    0.09830    0.97670    1.000
    H12      H        0.35480    0.11320    0.92290    1.000
    C13      C        0.22780    0.10180    0.74720    1.000
    C14      C        0.14930    0.12999    0.74560    1.000
    H13      H        0.11310    0.12760    0.78350    1.000
    C15      C        0.12540    0.16182    0.68680    1.000
    H14      H        0.07250    0.18080    0.68540    1.000
    C16      C        0.17830    0.16610    0.62990    1.000
    H15      H        0.16180    0.18820    0.59140    1.000
    C17      C        0.25590    0.13723    0.63080    1.000
    C18      C        0.28080    0.10502    0.69000    1.000
    H16      H        0.33320    0.08560    0.69110    1.000
    C19      C        0.31240    0.14117    0.56890    1.000
    C20      C        0.97440    0.96624    0.86640    1.000
    C21      C        0.89990    0.97046    0.90410    1.000
    H17      H        0.90730    0.98660    0.95010    1.000
    C22      C        0.81330    0.95030    0.87280    1.000
    H18      H        0.76290    0.95230    0.89870    1.000
    C23      C        0.80140    0.92756    0.80420    1.000
    H19      H        0.74320    0.91430    0.78360    1.000
    C24      C        0.87500    0.92437    0.76600    1.000
    C25      C        0.96200    0.94370    0.79750    1.000
    H20      H        0.01230    0.94140    0.77170    1.000
    C26      C        0.86180    0.90121    0.68920    1.000
    C27      C        0.19490    0.84142    0.93110    1.000
    C28      C        0.20390    0.81796    0.86520    1.000
    H21      H        0.23690    0.83160    0.83060    1.000
    C29      C        0.16380    0.77417    0.85110    1.000
    H22      H        0.16880    0.75850    0.80640    1.000
    C30      C        0.11640    0.75343    0.90260    1.000
    H23      H        0.08940    0.72380    0.89260    1.000
    C31      C        0.10880    0.77632    0.96870    1.000
    C32      C        0.14590    0.82096    0.98320    1.000
    H24      H        0.13840    0.83700    0.02700    1.000
    C33      C        0.42490    0.86013    0.12300    1.000
    C34      C        0.38000    0.81824    0.09950    1.000
    H25      H        0.33160    0.81770    0.05700    1.000
    C35      C        0.40680    0.77712    0.13900    1.000
    C36      C        0.47570    0.77914    0.20320    1.000
    H26      H        0.49450    0.75180    0.23040    1.000
    C37      C        0.51700    0.82130    0.22760    1.000
    H27      H        0.56260    0.82230    0.27190    1.000
    C38      C        0.49210    0.86196    0.18800    1.000
    H28      H        0.52050    0.89040    0.20490    1.000
    C39      C        0.35580    0.73153    0.11380    1.000
    C40      C        0.46750    0.19954    0.18560    1.000
    C41      C        0.40620    0.16828    0.14290    1.000
    H29      H        0.35810    0.15440    0.16360    1.000
    C42      C        0.41590    0.15742    0.06930    1.000
    C43      C        0.48650    0.17881    0.03840    1.000
    H30      H        0.49220    0.17240    0.98840    1.000
    C44      C        0.54790    0.20943    0.08110    1.000
    H31      H        0.59510    0.22380    0.05990    1.000
    C45      C        0.54050    0.21911    0.15500    1.000
    H32      H        0.58450    0.23880    0.18450    1.000
    C46      C        0.45220    0.21064    0.26320    1.000
    C47      C        0.56740    0.10070    0.33560    1.000
    C48      C        0.49930    0.08129    0.27880    1.000
    H33      H        0.43680    0.07910    0.28560    1.000
    C49      C        0.52400    0.06518    0.21210    1.000
    C50      C        0.61740    0.06912    0.20140    1.000
    H34      H        0.63460    0.05830    0.15690    1.000
    C51      C        0.68380    0.08936    0.25800    1.000
    H35      H        0.74590    0.09250    0.25060    1.000
    C52      C        0.66050    0.10481    0.32430    1.000
    H36      H        0.70650    0.11800    0.36190    1.000
    C53      C        0.54220    0.11724    0.40810    1.000
    C54      C        0.06090    0.75257    0.02700    1.000
    C55      C        0.63590    0.22493    0.63210    1.000
    H37      H        0.60150    0.24720    0.60020    1.000
    C56      C        0.70750    0.24033    0.69080    1.000
    H38      H        0.71950    0.27230    0.69770    1.000
    C57      C        0.75860    0.20910    0.73700    1.000
    H39      H        0.80620    0.21940    0.77600    1.000
    C58      C        0.74040    0.16043    0.72660    1.000
    C59      C        0.66760    0.14789    0.66660    1.000
    C60      C        0.64480    0.09920    0.65250    1.000
    C61      C        0.69700    0.06445    0.69810    1.000
    C62      C        0.77190    0.07880    0.75750    1.000
    H40      H        0.80710    0.05610    0.78770    1.000
    C63      C        0.79260    0.12380    0.77060    1.000
    H41      H        0.84240    0.13190    0.80950    1.000
    C64      C        0.67030    0.01746    0.68050    1.000
    H42      H        0.70300    0.99310    0.70860    1.000
    C65      C        0.59790    0.00758    0.62350    1.000
    H43      H        0.57990    0.97660    0.61240    1.000
    C66      C        0.54990    0.04432    0.58110    1.000
    H44      H        0.50010    0.03710    0.54160    1.000
    C67      C        0.23360    0.03741    0.49270    1.000
    H45      H        0.27890    0.04560    0.46400    1.000
    C68      C        0.24280    0.99420    0.53140    1.000
    H46      H        0.29350    0.97450    0.52830    1.000
    C69      C        0.17780    0.98150    0.57330    1.000
    H47      H        0.18340    0.95290    0.59890    1.000
    C70      C        0.10330    0.01107    0.57800    1.000
    C71      C        0.09860    0.05386    0.53780    1.000
    C72      C        0.02410    0.08663    0.54100    1.000
    C73      C        0.95450    0.07520    0.58410    1.000
    C74      C        0.96060    0.03170    0.62340    1.000
    H48      H        0.91480    0.02440    0.65220    1.000
    C75      C        0.02860    0.00150    0.62060    1.000
    H49      H        0.02920    0.97320    0.64660    1.000
    C76      C        0.95490    0.15690    0.50410    1.000
    H50      H        0.95420    0.18490    0.47730    1.000
    C77      C        0.88300    0.14860    0.54480    1.000
    H51      H        0.83530    0.17080    0.54490    1.000
    C78      C        0.88330    0.10800    0.58410    1.000
    H52      H        0.83530    0.10200    0.61130    1.000
    O1       O        0.05779    0.98609    0.90258    1.000
    O2       O        0.23970    0.88412    0.94111    1.000
    O3       O        0.40360    0.89808    0.07385    1.000
    O4       O        0.45217    0.04642    0.15928    1.000
    O5       O        0.35440    0.12476    0.03236    1.000
    O6       O        0.26010    0.06956    0.80340    1.000
    O7       O        0.93250    0.89897    0.65667    1.000
    O8       O        0.78370    0.88663    0.65805    1.000
    O9       O        0.46055    0.11073    0.42321    1.000
    O10      O        0.60509    0.13798    0.45581    1.000
    O11      O        0.39110    0.19142    0.29012    1.000
    O12      O        0.50720    0.24347    0.29800    1.000
    H53      H        0.49480    0.24780    0.34040    1.000
    O13      O        0.04450    0.77709    0.08184    1.000
    O14      O        0.04110    0.70989    0.01995    1.000
    O15      O        0.40083    0.13492    0.58763    1.000
    O16      O        0.27130    0.15067    0.50268    1.000
    O17      O        0.27120    0.72898    0.11510    1.000
    O18      O        0.40500    0.69976    0.09142    1.000
    N1       N        0.57240    0.08910    0.59473    1.000
    N2       N        0.61520    0.17966    0.62020    1.000
    N3       N        0.16380    0.06651    0.49530    1.000
    N4       N        0.02390    0.12686    0.50160    1.000
    Co3      Co       0.36344    0.63466    0.05733    1.000
    Co4      Co       0.98839    0.64920    0.96634    1.000
    Na2      Na       0.16821    0.66695    0.10890    1.000
    C79      C        0.23800    0.53582    0.57470    1.000
    C80      C        0.27530    0.49111    0.56870    1.000
    C81      C        0.23480    0.46118    0.50910    1.000
    C82      C        0.15380    0.47489    0.45820    1.000
    C83      C        0.11320    0.51924    0.46670    1.000
    C84      C        0.15670    0.55004    0.52360    1.000
    C85      C        0.28820    0.56968    0.63320    1.000
    H54      H        0.35360    0.56010    0.64960    1.000
    H55      H        0.28740    0.60100    0.61170    1.000
    C86      C        0.35890    0.47424    0.62610    1.000
    H56      H        0.35970    0.48940    0.67480    1.000
    H57      H        0.35530    0.44050    0.63290    1.000
    C87      C        0.28430    0.41462    0.50130    1.000
    H58      H        0.26270    0.40130    0.45110    1.000
    H59      H        0.35230    0.41910    0.50880    1.000
    C88      C        0.11010    0.44294    0.39370    1.000
    H60      H        0.04990    0.45560    0.36790    1.000
    H61      H        0.15170    0.44000    0.35700    1.000
    C89      C        0.02480    0.53393    0.41270    1.000
    H62      H        0.97950    0.50830    0.40600    1.000
    H63      H        0.99610    0.56060    0.43360    1.000
    C90      C        0.11850    0.59900    0.52860    1.000
    H64      H        0.05010    0.59830    0.52330    1.000
    H65      H        0.14520    0.61320    0.57710    1.000
    C91      C        0.27220    0.60180    0.75280    1.000
    C92      C        0.35070    0.62999    0.75440    1.000
    H66      H        0.38690    0.62760    0.71650    1.000
    C93      C        0.37460    0.66182    0.81320    1.000
    H67      H        0.42750    0.68080    0.81460    1.000
    C94      C        0.32170    0.66610    0.87010    1.000
    H68      H        0.33820    0.68820    0.90860    1.000
    C95      C        0.24410    0.63723    0.86920    1.000
    C96      C        0.21920    0.60502    0.81000    1.000
    H69      H        0.16680    0.58560    0.80890    1.000
    C97      C        0.18760    0.64117    0.93110    1.000
    C98      C        0.52560    0.46624    0.63360    1.000
    C99      C        0.60010    0.47046    0.59590    1.000
    H70      H        0.59270    0.48660    0.54990    1.000
    C100     C        0.68670    0.45030    0.62720    1.000
    H71      H        0.73710    0.45230    0.60130    1.000
    C101     C        0.69860    0.42756    0.69580    1.000
    H72      H        0.75680    0.41430    0.71640    1.000
    C102     C        0.62500    0.42437    0.73400    1.000
    C103     C        0.53800    0.44370    0.70250    1.000
    H73      H        0.48770    0.44140    0.72830    1.000
    C104     C        0.63820    0.40121    0.81080    1.000
    C105     C        0.30510    0.34142    0.56890    1.000
    C106     C        0.29610    0.31796    0.63480    1.000
    H74      H        0.26310    0.33160    0.66940    1.000
    C107     C        0.33620    0.27417    0.64890    1.000
    H75      H        0.33120    0.25850    0.69360    1.000
    C108     C        0.38360    0.25343    0.59740    1.000
    H76      H        0.41060    0.22380    0.60740    1.000
    C109     C        0.39120    0.27632    0.53130    1.000
    C110     C        0.35410    0.32096    0.51680    1.000
    H77      H        0.36160    0.33700    0.47300    1.000
    C111     C        0.07510    0.36013    0.37700    1.000
    C112     C        0.12000    0.31824    0.40050    1.000
    H78      H        0.16840    0.31770    0.44300    1.000
    C113     C        0.09320    0.27712    0.36100    1.000
    C114     C        0.02430    0.27914    0.29680    1.000
    H79      H        0.00550    0.25180    0.26960    1.000
    C115     C        0.98300    0.32130    0.27240    1.000
    H80      H        0.93740    0.32230    0.22810    1.000
    C116     C        0.00790    0.36196    0.31200    1.000
    H81      H        0.97950    0.39040    0.29510    1.000
    C117     C        0.14420    0.23153    0.38620    1.000
    C118     C        0.03250    0.69954    0.31440    1.000
    C119     C        0.09380    0.66828    0.35710    1.000
    H82      H        0.14190    0.65440    0.33640    1.000
    C120     C        0.08410    0.65742    0.43070    1.000
    C121     C        0.01350    0.67881    0.46160    1.000
    H83      H        0.00780    0.67240    0.51160    1.000
    C122     C        0.95210    0.70943    0.41890    1.000
    H84      H        0.90490    0.72380    0.44010    1.000
    C123     C        0.95950    0.71911    0.34500    1.000
    H85      H        0.91550    0.73880    0.31550    1.000
    C124     C        0.04780    0.71064    0.23680    1.000
    C125     C        0.93260    0.60070    0.16440    1.000
    C126     C        0.00070    0.58129    0.22120    1.000
    H86      H        0.06320    0.57910    0.21440    1.000
    C127     C        0.97600    0.56518    0.28790    1.000
    C128     C        0.88260    0.56912    0.29860    1.000
    H87      H        0.86540    0.55830    0.34310    1.000
    C129     C        0.81620    0.58936    0.24200    1.000
    H88      H        0.75410    0.59250    0.24940    1.000
    C130     C        0.83950    0.60481    0.17570    1.000
    H89      H        0.79350    0.61800    0.13810    1.000
    C131     C        0.95780    0.61724    0.09190    1.000
    C132     C        0.43910    0.25257    0.47300    1.000
    C133     C        0.86410    0.72493    0.86790    1.000
    H90      H        0.89850    0.74720    0.89980    1.000
    C134     C        0.79250    0.74033    0.80920    1.000
    H91      H        0.78050    0.77230    0.80230    1.000
    C135     C        0.74140    0.70910    0.76300    1.000
    H92      H        0.69380    0.71940    0.72400    1.000
    C136     C        0.75960    0.66043    0.77340    1.000
    C137     C        0.83240    0.64789    0.83340    1.000
    C138     C        0.85520    0.59920    0.84750    1.000
    C139     C        0.80300    0.56445    0.80190    1.000
    C140     C        0.72810    0.57880    0.74250    1.000
    H93      H        0.69290    0.55610    0.71230    1.000
    C141     C        0.70740    0.62380    0.72940    1.000
    H94      H        0.65760    0.63190    0.69050    1.000
    C142     C        0.82970    0.51746    0.81950    1.000
    H95      H        0.79700    0.49310    0.79140    1.000
    C143     C        0.90210    0.50758    0.87650    1.000
    H96      H        0.92010    0.47660    0.88760    1.000
    C144     C        0.95010    0.54432    0.91890    1.000
    H97      H        0.99990    0.53710    0.95840    1.000
    C145     C        0.26640    0.53741    0.00730    1.000
    H98      H        0.22110    0.54560    0.03600    1.000
    C146     C        0.25720    0.49420    0.96860    1.000
    H99      H        0.20650    0.47450    0.97170    1.000
    C147     C        0.32220    0.48150    0.92670    1.000
    H100     H        0.31660    0.45290    0.90110    1.000
    C148     C        0.39670    0.51107    0.92200    1.000
    C149     C        0.40140    0.55386    0.96220    1.000
    C150     C        0.47590    0.58663    0.95900    1.000
    C151     C        0.54550    0.57520    0.91590    1.000
    C152     C        0.53940    0.53170    0.87660    1.000
    H101     H        0.58520    0.52440    0.84780    1.000
    C153     C        0.47140    0.50150    0.87940    1.000
    H102     H        0.47080    0.47320    0.85340    1.000
    C154     C        0.54510    0.65690    0.99590    1.000
    H103     H        0.54580    0.68490    0.02270    1.000
    C155     C        0.61700    0.64860    0.95520    1.000
    H104     H        0.66470    0.67080    0.95510    1.000
    C156     C        0.61670    0.60800    0.91590    1.000
    H105     H        0.66470    0.60200    0.88870    1.000
    O19      O        0.44221    0.48609    0.59742    1.000
    O20      O        0.26030    0.38412    0.55889    1.000
    O21      O        0.09640    0.39808    0.42615    1.000
    O22      O        0.04783    0.54642    0.34072    1.000
    O23      O        0.14560    0.62476    0.46764    1.000
    O24      O        0.23990    0.56956    0.69660    1.000
    O25      O        0.56750    0.39897    0.84333    1.000
    O26      O        0.71630    0.38663    0.84195    1.000
    O27      O        0.03945    0.61073    0.07679    1.000
    O28      O        0.89491    0.63798    0.04419    1.000
    O29      O        0.10890    0.69142    0.20988    1.000
    O30      O        0.99280    0.74347    0.20200    1.000
    H106     H        0.00520    0.74780    0.15960    1.000
    O31      O        0.45550    0.27709    0.41816    1.000
    O32      O        0.45890    0.20989    0.48005    1.000
    O33      O        0.09917    0.63492    0.91237    1.000
    O34      O        0.22870    0.65067    0.99732    1.000
    O35      O        0.22880    0.22898    0.38490    1.000
    O36      O        0.09500    0.19976    0.40858    1.000
    N5       N        0.92760    0.58910    0.90527    1.000
    N6       N        0.88480    0.67966    0.87980    1.000
    N7       N        0.33620    0.56651    0.00470    1.000
    N8       N        0.47610    0.62686    0.99840    1.000
    Co5      Co       0.86344    0.86534    0.55733    1.000
    Co6      Co       0.48839    0.85080    0.46634    1.000
    Na3      Na       0.66821    0.83305    0.60890    1.000
    C157     C        0.73800    0.96418    0.07470    1.000
    C158     C        0.77530    0.00889    0.06870    1.000
    C159     C        0.73480    0.03882    0.00910    1.000
    C160     C        0.65380    0.02511    0.95820    1.000
    C161     C        0.61320    0.98076    0.96670    1.000
    C162     C        0.65670    0.94996    0.02360    1.000
    C163     C        0.78820    0.93032    0.13320    1.000
    H107     H        0.85360    0.93990    0.14960    1.000
    H108     H        0.78740    0.89900    0.11170    1.000
    C164     C        0.85890    0.02576    0.12610    1.000
    H109     H        0.85970    0.01060    0.17480    1.000
    H110     H        0.85530    0.05950    0.13290    1.000
    C165     C        0.78430    0.08538    0.00130    1.000
    H111     H        0.76270    0.09870    0.95110    1.000
    H112     H        0.85230    0.08090    0.00880    1.000
    C166     C        0.61010    0.05706    0.89370    1.000
    H113     H        0.54990    0.04440    0.86790    1.000
    H114     H        0.65170    0.06000    0.85700    1.000
    C167     C        0.52480    0.96607    0.91270    1.000
    H115     H        0.47950    0.99170    0.90600    1.000
    H116     H        0.49610    0.93940    0.93360    1.000
    C168     C        0.61850    0.90100    0.02860    1.000
    H117     H        0.55010    0.90170    0.02330    1.000
    H118     H        0.64520    0.88680    0.07710    1.000
    C169     C        0.77220    0.89820    0.25280    1.000
    C170     C        0.85070    0.87001    0.25440    1.000
    H119     H        0.88690    0.87240    0.21650    1.000
    C171     C        0.87460    0.83818    0.31320    1.000
    H120     H        0.92750    0.81920    0.31460    1.000
    C172     C        0.82170    0.83390    0.37010    1.000
    H121     H        0.83820    0.81180    0.40860    1.000
    C173     C        0.74410    0.86277    0.36920    1.000
    C174     C        0.71920    0.89498    0.31000    1.000
    H122     H        0.66680    0.91440    0.30890    1.000
    C175     C        0.68760    0.85883    0.43110    1.000
    C176     C        0.02560    0.03376    0.13360    1.000
    C177     C        0.10010    0.02954    0.09590    1.000
    H123     H        0.09270    0.01340    0.04990    1.000
    C178     C        0.18670    0.04970    0.12720    1.000
    H124     H        0.23710    0.04770    0.10130    1.000
    C179     C        0.19860    0.07244    0.19580    1.000
    H125     H        0.25680    0.08570    0.21640    1.000
    C180     C        0.12500    0.07563    0.23400    1.000
    C181     C        0.03800    0.05630    0.20250    1.000
    H126     H        0.98770    0.05860    0.22830    1.000
    C182     C        0.13820    0.09879    0.31080    1.000
    C183     C        0.80510    0.15858    0.06890    1.000
    C184     C        0.79610    0.18204    0.13480    1.000
    H127     H        0.76310    0.16840    0.16940    1.000
    C185     C        0.83620    0.22583    0.14890    1.000
    H128     H        0.83120    0.24150    0.19360    1.000
    C186     C        0.88360    0.24657    0.09740    1.000
    H129     H        0.91060    0.27620    0.10740    1.000
    C187     C        0.89120    0.22368    0.03130    1.000
    C188     C        0.85410    0.17904    0.01680    1.000
    H130     H        0.86160    0.16300    0.97300    1.000
    C189     C        0.57510    0.13987    0.87700    1.000
    C190     C        0.62000    0.18176    0.90050    1.000
    H131     H        0.66840    0.18230    0.94300    1.000
    C191     C        0.59320    0.22288    0.86100    1.000
    C192     C        0.52430    0.22086    0.79680    1.000
    H132     H        0.50550    0.24820    0.76960    1.000
    C193     C        0.48300    0.17870    0.77240    1.000
    H133     H        0.43740    0.17770    0.72810    1.000
    C194     C        0.50790    0.13804    0.81200    1.000
    H134     H        0.47950    0.10960    0.79510    1.000
    C195     C        0.64420    0.26847    0.88620    1.000
    C196     C        0.53250    0.80046    0.81440    1.000
    C197     C        0.59380    0.83172    0.85710    1.000
    H135     H        0.64190    0.84560    0.83640    1.000
    C198     C        0.58410    0.84258    0.93070    1.000
    C199     C        0.51350    0.82119    0.96160    1.000
    H136     H        0.50780    0.82760    0.01160    1.000
    C200     C        0.45210    0.79057    0.91890    1.000
    H137     H        0.40490    0.77620    0.94010    1.000
    C201     C        0.45950    0.78089    0.84500    1.000
    H138     H        0.41550    0.76120    0.81550    1.000
    C202     C        0.54780    0.78936    0.73680    1.000
    C203     C        0.43260    0.89930    0.66440    1.000
    C204     C        0.50070    0.91871    0.72120    1.000
    H139     H        0.56320    0.92090    0.71440    1.000
    C205     C        0.47600    0.93482    0.78790    1.000
    C206     C        0.38260    0.93088    0.79860    1.000
    H140     H        0.36540    0.94170    0.84310    1.000
    C207     C        0.31620    0.91064    0.74200    1.000
    H141     H        0.25410    0.90750    0.74940    1.000
    C208     C        0.33950    0.89519    0.67570    1.000
    H142     H        0.29350    0.88200    0.63810    1.000
    C209     C        0.45780    0.88276    0.59190    1.000
    C210     C        0.93910    0.24743    0.97300    1.000
    C211     C        0.36410    0.77507    0.36790    1.000
    H143     H        0.39850    0.75280    0.39980    1.000
    C212     C        0.29250    0.75967    0.30920    1.000
    H144     H        0.28050    0.72770    0.30230    1.000
    C213     C        0.24140    0.79090    0.26300    1.000
    H145     H        0.19380    0.78060    0.22400    1.000
    C214     C        0.25960    0.83957    0.27340    1.000
    C215     C        0.33240    0.85211    0.33340    1.000
    C216     C        0.35520    0.90080    0.34750    1.000
    C217     C        0.30300    0.93555    0.30190    1.000
    C218     C        0.22810    0.92120    0.24250    1.000
    H146     H        0.19290    0.94390    0.21230    1.000
    C219     C        0.20740    0.87620    0.22940    1.000
    H147     H        0.15760    0.86810    0.19050    1.000
    C220     C        0.32970    0.98254    0.31950    1.000
    H148     H        0.29700    0.00690    0.29140    1.000
    C221     C        0.40210    0.99242    0.37650    1.000
    H149     H        0.42010    0.02340    0.38760    1.000
    C222     C        0.45010    0.95568    0.41890    1.000
    H150     H        0.49990    0.96290    0.45840    1.000
    C223     C        0.76640    0.96259    0.50730    1.000
    H151     H        0.72110    0.95440    0.53600    1.000
    C224     C        0.75720    0.00580    0.46860    1.000
    H152     H        0.70650    0.02550    0.47170    1.000
    C225     C        0.82220    0.01850    0.42670    1.000
    H153     H        0.81660    0.04710    0.40110    1.000
    C226     C        0.89670    0.98893    0.42200    1.000
    C227     C        0.90140    0.94614    0.46220    1.000
    C228     C        0.97590    0.91337    0.45900    1.000
    C229     C        0.04550    0.92480    0.41590    1.000
    C230     C        0.03940    0.96830    0.37660    1.000
    H154     H        0.08520    0.97560    0.34780    1.000
    C231     C        0.97140    0.99850    0.37940    1.000
    H155     H        0.97080    0.02680    0.35340    1.000
    C232     C        0.04510    0.84310    0.49590    1.000
    H156     H        0.04580    0.81510    0.52270    1.000
    C233     C        0.11700    0.85140    0.45520    1.000
    H157     H        0.16470    0.82920    0.45510    1.000
    C234     C        0.11670    0.89200    0.41590    1.000
    H158     H        0.16470    0.89800    0.38870    1.000
    O37      O        0.94221    0.01391    0.09742    1.000
    O38      O        0.76030    0.11588    0.05889    1.000
    O39      O        0.59640    0.10192    0.92615    1.000
    O40      O        0.54783    0.95358    0.84072    1.000
    O41      O        0.64560    0.87524    0.96764    1.000
    O42      O        0.73990    0.93044    0.19660    1.000
    O43      O        0.06750    0.10103    0.34333    1.000
    O44      O        0.21630    0.11337    0.34195    1.000
    O45      O        0.53945    0.88927    0.57679    1.000
    O46      O        0.39491    0.86202    0.54419    1.000
    O47      O        0.60890    0.80858    0.70988    1.000
    O48      O        0.49280    0.75653    0.70200    1.000
    H159     H        0.50520    0.75220    0.65960    1.000
    O49      O        0.95550    0.22291    0.91816    1.000
    O50      O        0.95890    0.29011    0.98005    1.000
    O51      O        0.59917    0.86508    0.41237    1.000
    O52      O        0.72870    0.84933    0.49732    1.000
    O53      O        0.72880    0.27102    0.88490    1.000
    O54      O        0.59500    0.30024    0.90858    1.000
    N9       N        0.42760    0.91090    0.40527    1.000
    N10      N        0.38480    0.82034    0.37980    1.000
    N11      N        0.83620    0.93349    0.50470    1.000
    N12      N        0.97610    0.87314    0.49840    1.000
    Co7      Co       0.63656    0.36534    0.94267    1.000
    Co8      Co       0.01161    0.35080    0.03366    1.000
    Na4      Na       0.83179    0.33305    0.89110    1.000
    C235     C        0.76200    0.46418    0.42530    1.000
    C236     C        0.72470    0.50889    0.43130    1.000
    C237     C        0.76520    0.53882    0.49090    1.000
    C238     C        0.84620    0.52511    0.54180    1.000
    C239     C        0.88680    0.48076    0.53330    1.000
    C240     C        0.84330    0.44996    0.47640    1.000
    C241     C        0.71180    0.43032    0.36680    1.000
    H160     H        0.64640    0.43990    0.35040    1.000
    H161     H        0.71260    0.39900    0.38830    1.000
    C242     C        0.64110    0.52576    0.37390    1.000
    H162     H        0.64030    0.51060    0.32520    1.000
    H163     H        0.64470    0.55950    0.36710    1.000
    C243     C        0.71570    0.58538    0.49870    1.000
    H164     H        0.73730    0.59870    0.54890    1.000
    H165     H        0.64770    0.58090    0.49120    1.000
    C244     C        0.88990    0.55706    0.60630    1.000
    H166     H        0.95010    0.54440    0.63210    1.000
    H167     H        0.84830    0.56000    0.64300    1.000
    C245     C        0.97520    0.46607    0.58730    1.000
    H168     H        0.02050    0.49170    0.59400    1.000
    H169     H        0.00390    0.43940    0.56640    1.000
    C246     C        0.88150    0.40100    0.47140    1.000
    H170     H        0.94990    0.40170    0.47670    1.000
    H171     H        0.85480    0.38680    0.42290    1.000
    C247     C        0.72780    0.39820    0.24720    1.000
    C248     C        0.64930    0.37001    0.24560    1.000
    H172     H        0.61310    0.37240    0.28350    1.000
    C249     C        0.62540    0.33818    0.18680    1.000
    H173     H        0.57250    0.31920    0.18540    1.000
    C250     C        0.67830    0.33390    0.12990    1.000
    H174     H        0.66180    0.31180    0.09140    1.000
    C251     C        0.75590    0.36277    0.13080    1.000
    C252     C        0.78080    0.39498    0.19000    1.000
    H175     H        0.83320    0.41440    0.19110    1.000
    C253     C        0.81240    0.35883    0.06890    1.000
    C254     C        0.47440    0.53376    0.36640    1.000
    C255     C        0.39990    0.52954    0.40410    1.000
    H176     H        0.40730    0.51340    0.45010    1.000
    C256     C        0.31330    0.54970    0.37280    1.000
    H177     H        0.26290    0.54770    0.39870    1.000
    C257     C        0.30140    0.57244    0.30420    1.000
    H178     H        0.24320    0.58570    0.28360    1.000
    C258     C        0.37500    0.57563    0.26600    1.000
    C259     C        0.46200    0.55630    0.29750    1.000
    H179     H        0.51230    0.55860    0.27170    1.000
    C260     C        0.36180    0.59879    0.18920    1.000
    C261     C        0.69490    0.65858    0.43110    1.000
    C262     C        0.70390    0.68204    0.36520    1.000
    H180     H        0.73690    0.66840    0.33060    1.000
    C263     C        0.66380    0.72583    0.35110    1.000
    H181     H        0.66880    0.74150    0.30640    1.000
    C264     C        0.61640    0.74657    0.40260    1.000
    H182     H        0.58940    0.77620    0.39260    1.000
    C265     C        0.60880    0.72368    0.46870    1.000
    C266     C        0.64590    0.67904    0.48320    1.000
    H183     H        0.63840    0.66300    0.52700    1.000
    C267     C        0.92490    0.63987    0.62300    1.000
    C268     C        0.88000    0.68176    0.59950    1.000
    H184     H        0.83160    0.68230    0.55700    1.000
    C269     C        0.90680    0.72288    0.63900    1.000
    C270     C        0.97570    0.72086    0.70320    1.000
    H185     H        0.99450    0.74820    0.73040    1.000
    C271     C        0.01700    0.67870    0.72760    1.000
    H186     H        0.06260    0.67770    0.77190    1.000
    C272     C        0.99210    0.63804    0.68800    1.000
    H187     H        0.02050    0.60960    0.70490    1.000
    C273     C        0.85580    0.76847    0.61380    1.000
    C274     C        0.96750    0.30046    0.68560    1.000
    C275     C        0.90620    0.33172    0.64290    1.000
    H188     H        0.85810    0.34560    0.66360    1.000
    C276     C        0.91590    0.34258    0.56930    1.000
    C277     C        0.98650    0.32119    0.53840    1.000
    H189     H        0.99220    0.32760    0.48840    1.000
    C278     C        0.04790    0.29057    0.58110    1.000
    H190     H        0.09510    0.27620    0.55990    1.000
    C279     C        0.04050    0.28089    0.65500    1.000
    H191     H        0.08450    0.26120    0.68450    1.000
    C280     C        0.95220    0.28936    0.76320    1.000
    C281     C        0.06740    0.39930    0.83560    1.000
    C282     C        0.99930    0.41871    0.77880    1.000
    H192     H        0.93680    0.42090    0.78560    1.000
    C283     C        0.02400    0.43482    0.71210    1.000
    C284     C        0.11740    0.43088    0.70140    1.000
    H193     H        0.13460    0.44170    0.65690    1.000
    C285     C        0.18380    0.41064    0.75800    1.000
    H194     H        0.24590    0.40750    0.75060    1.000
    C286     C        0.16050    0.39519    0.82430    1.000
    H195     H        0.20650    0.38200    0.86190    1.000
    C287     C        0.04220    0.38276    0.90810    1.000
    C288     C        0.56090    0.74743    0.52700    1.000
    C289     C        0.13590    0.27507    0.13210    1.000
    H196     H        0.10150    0.25280    0.10020    1.000
    C290     C        0.20750    0.25967    0.19080    1.000
    H197     H        0.21950    0.22770    0.19770    1.000
    C291     C        0.25860    0.29090    0.23700    1.000
    H198     H        0.30620    0.28060    0.27600    1.000
    C292     C        0.24040    0.33957    0.22660    1.000
    C293     C        0.16760    0.35211    0.16660    1.000
    C294     C        0.14480    0.40080    0.15250    1.000
    C295     C        0.19700    0.43555    0.19810    1.000
    C296     C        0.27190    0.42120    0.25750    1.000
    H199     H        0.30710    0.44390    0.28770    1.000
    C297     C        0.29260    0.37620    0.27060    1.000
    H200     H        0.34240    0.36810    0.30950    1.000
    C298     C        0.17030    0.48254    0.18050    1.000
    H201     H        0.20300    0.50690    0.20860    1.000
    C299     C        0.09790    0.49242    0.12350    1.000
    H202     H        0.07990    0.52340    0.11240    1.000
    C300     C        0.04990    0.45568    0.08110    1.000
    H203     H        0.00010    0.46290    0.04160    1.000
    C301     C        0.73360    0.46259    0.99270    1.000
    H204     H        0.77890    0.45440    0.96400    1.000
    C302     C        0.74280    0.50580    0.03140    1.000
    H205     H        0.79350    0.52550    0.02830    1.000
    C303     C        0.67780    0.51850    0.07330    1.000
    H206     H        0.68340    0.54710    0.09890    1.000
    C304     C        0.60330    0.48893    0.07800    1.000
    C305     C        0.59860    0.44614    0.03780    1.000
    C306     C        0.52410    0.41337    0.04100    1.000
    C307     C        0.45450    0.42480    0.08410    1.000
    C308     C        0.46060    0.46830    0.12340    1.000
    H207     H        0.41480    0.47560    0.15220    1.000
    C309     C        0.52860    0.49850    0.12060    1.000
    H208     H        0.52920    0.52680    0.14660    1.000
    C310     C        0.45490    0.34310    0.00410    1.000
    H209     H        0.45420    0.31510    0.97730    1.000
    C311     C        0.38300    0.35140    0.04480    1.000
    H210     H        0.33530    0.32920    0.04490    1.000
    C312     C        0.38330    0.39200    0.08410    1.000
    H211     H        0.33530    0.39800    0.11130    1.000
    O55      O        0.55779    0.51391    0.40258    1.000
    O56      O        0.73970    0.61588    0.44111    1.000
    O57      O        0.90360    0.60192    0.57385    1.000
    O58      O        0.95217    0.45358    0.65928    1.000
    O59      O        0.85440    0.37524    0.53236    1.000
    O60      O        0.76010    0.43044    0.30340    1.000
    O61      O        0.43250    0.60103    0.15667    1.000
    O62      O        0.28370    0.61337    0.15805    1.000
    O63      O        0.96055    0.38927    0.92321    1.000
    O64      O        0.10509    0.36202    0.95581    1.000
    O65      O        0.89110    0.30858    0.79012    1.000
    O66      O        0.00720    0.25653    0.79800    1.000
    H212     H        0.99480    0.25220    0.84040    1.000
    O67      O        0.54450    0.72291    0.58184    1.000
    O68      O        0.54110    0.79011    0.51995    1.000
    O69      O        0.90083    0.36508    0.08763    1.000
    O70      O        0.77130    0.34933    0.00268    1.000
    O71      O        0.77120    0.77102    0.61510    1.000
    O72      O        0.90500    0.80024    0.59142    1.000
    N13      N        0.07240    0.41090    0.09473    1.000
    N14      N        0.11520    0.32034    0.12020    1.000
    N15      N        0.66380    0.43349    0.99530    1.000
    N16      N        0.52390    0.37314    0.00160    1.000
