# CIF file generated by openbabel 3.1.0, see https://openbabel.org
data_I
_chemical_name_common 'image0'
_cell_length_a 12.886
_cell_length_b 16.4783
_cell_length_c 18.2541
_cell_angle_alpha 80.202
_cell_angle_beta 86.039
_cell_angle_gamma 81.673
_space_group_name_H-M_alt 'P 1'
_space_group_name_Hall 'P 1'
loop_
    _symmetry_equiv_pos_as_xyz
    x,y,z
loop_
    _atom_site_label
    _atom_site_type_symbol
    _atom_site_fract_x
    _atom_site_fract_y
    _atom_site_fract_z
    _atom_site_occupancy
    Zn1      Zn       0.83226    0.70857    0.32595    1.000
    Zn2      Zn       0.75666    0.23695    0.98774    1.000
    Zn3      Zn       0.48660    0.27513    0.26392    1.000
    C1       C        0.93420    0.58830    0.42660    1.000
    C2       C        0.95240    0.53030    0.49970    1.000
    H1       H        0.95580    0.56350    0.53830    1.000
    H2       H        0.89230    0.50040    0.51220    1.000
    C3       C        0.90150    0.10250    0.98740    1.000
    C4       C        0.94570    0.01010    0.99480    1.000
    H3       H        0.90870    0.98010    0.03650    1.000
    H4       H        0.93020    0.99010    0.95030    1.000
    C5       C        0.53460    0.28590    0.00010    1.000
    C6       C        0.42610    0.26150    0.01600    1.000
    H5       H        0.40140    0.24930    0.97050    1.000
    H6       H        0.37930    0.30850    0.02990    1.000
    C7       C        0.41850    0.18670    0.07700    1.000
    H7       H        0.46650    0.13970    0.06400    1.000
    H8       H        0.34790    0.17200    0.07970    1.000
    C8       C        0.44410    0.20240    0.15360    1.000
    C9       C        0.94770    0.84690    0.23930    1.000
    H9       H        0.89510    0.86730    0.20580    1.000
    C10      C        0.03910    0.87580    0.23810    1.000
    H10      H        0.06150    0.91940    0.20430    1.000
    C11      C        0.03290    0.77520    0.32920    1.000
    H11      H        0.05140    0.73610    0.37090    1.000
    C12      C        0.50660    0.44350    0.17550    1.000
    H12      H        0.49140    0.42180    0.13420    1.000
    C13      C        0.52290    0.51970    0.17230    1.000
    H13      H        0.52120    0.56160    0.13100    1.000
    C14      C        0.53210    0.44830    0.28550    1.000
    H14      H        0.53780    0.43670    0.33680    1.000
    C15      C        0.20050    0.83860    0.31760    1.000
    H15      H        0.21700    0.89330    0.29530    1.000
    H16      H        0.19890    0.83550    0.37120    1.000
    C16      C        0.28510    0.77550    0.29580    1.000
    C17      C        0.35440    0.79300    0.23520    1.000
    H17      H        0.34420    0.84460    0.20480    1.000
    C18      C        0.43760    0.73560    0.21940    1.000
    H18      H        0.47980    0.74480    0.17610    1.000
    C19      C        0.45660    0.66090    0.27250    1.000
    C20      C        0.38480    0.64310    0.32420    1.000
    H19      H        0.39150    0.59020    0.35250    1.000
    C21      C        0.30030    0.69900    0.33860    1.000
    H20      H        0.25280    0.68480    0.37770    1.000
    C22      C        0.55830    0.60200    0.26850    1.000
    H21      H        0.60830    0.62950    0.23440    1.000
    H22      H        0.58770    0.58900    0.31730    1.000
    C23      C        0.88680    0.30320    0.85190    1.000
    H23      H        0.93890    0.25750    0.85780    1.000
    C24      C        0.88590    0.36930    0.79690    1.000
    H24      H        0.93620    0.37770    0.75830    1.000
    C25      C        0.74720    0.38610    0.86970    1.000
    H25      H        0.68390    0.40970    0.88970    1.000
    C26      C        0.26910    0.67990    0.87410    1.000
    H26      H        0.33530    0.65260    0.88700    1.000
    C27      C        0.22420    0.67510    0.81210    1.000
    H27      H        0.25070    0.64420    0.77510    1.000
    C28      C        0.12200    0.75730    0.87840    1.000
    H28      H        0.06490    0.79320    0.89320    1.000
    C29      C        0.76210    0.50260    0.76430    1.000
    H29      H        0.69380    0.52470    0.78380    1.000
    H30      H        0.75450    0.49540    0.71340    1.000
    C30      C        0.83760    0.56380    0.76490    1.000
    C31      C        0.83250    0.61320    0.82150    1.000
    H31      H        0.78190    0.60750    0.86020    1.000
    C32      C        0.90130    0.66910    0.81970    1.000
    H32      H        0.89690    0.70100    0.85750    1.000
    C33      C        0.97710    0.67960    0.76310    1.000
    C34      C        0.98290    0.63100    0.70950    1.000
    H33      H        0.03470    0.63590    0.67150    1.000
    C35      C        0.91380    0.57460    0.71020    1.000
    H34      H        0.91930    0.54290    0.67220    1.000
    C36      C        0.05040    0.74430    0.75800    1.000
    H35      H        0.08580    0.74980    0.70910    1.000
    H36      H        0.00900    0.79740    0.76260    1.000
    C37      C        0.33220    0.31290    0.39140    1.000
    H37      H        0.36930    0.35240    0.40420    1.000
    C38      C        0.24300    0.29030    0.42530    1.000
    H38      H        0.20820    0.31030    0.46630    1.000
    C39      C        0.28510    0.22070    0.33440    1.000
    H39      H        0.28320    0.18420    0.30100    1.000
    C40      C        0.33090    0.77510    0.63630    1.000
    H40      H        0.35090    0.73210    0.60900    1.000
    C41      C        0.24470    0.83180    0.62700    1.000
    H41      H        0.19570    0.83530    0.59120    1.000
    C42      C        0.33020    0.85510    0.71690    1.000
    H42      H        0.34850    0.87950    0.75570    1.000
    C43      C        0.11980    0.18810    0.40860    1.000
    H43      H        0.10960    0.15800    0.36900    1.000
    H44      H        0.05780    0.22840    0.41320    1.000
    C44      C        0.13230    0.12770    0.48090    1.000
    C45      C        0.22860    0.10060    0.51360    1.000
    H45      H        0.28860    0.11990    0.48990    1.000
    C46      C        0.23790    0.04550    0.58080    1.000
    H46      H        0.30290    0.03000    0.60190    1.000
    C47      C        0.15090    0.01430    0.61560    1.000
    C48      C        0.05620    0.04590    0.58740    1.000
    H47      H        0.99600    0.02750    0.61170    1.000
    C49      C        0.04640    0.10460    0.52370    1.000
    H48      H        0.97970    0.12920    0.50930    1.000
    C50      C        0.16170    0.95150    0.68710    1.000
    H49      H        0.18090    0.97810    0.72670    1.000
    H50      H        0.09480    0.93160    0.70170    1.000
    C51      C        0.83680    0.55690    0.25410    1.000
    H51      H        0.84300    0.52150    0.29950    1.000
    C52      C        0.83730    0.53270    0.18640    1.000
    H52      H        0.84400    0.47840    0.17690    1.000
    C53      C        0.81970    0.66690    0.17200    1.000
    H53      H        0.81180    0.72230    0.14950    1.000
    C54      C        0.82340    0.60720    0.05380    1.000
    H54      H        0.82520    0.66410    0.02920    1.000
    H55      H        0.75840    0.59000    0.04220    1.000
    C55      C        0.91430    0.55240    0.02500    1.000
    C56      C        0.01480    0.57620    0.01690    1.000
    H56      H        0.02510    0.62710    0.02850    1.000
    C57      C        0.65700    0.84380    0.27610    1.000
    H57      H        0.69020    0.85640    0.22960    1.000
    C58      C        0.56730    0.88230    0.29830    1.000
    H58      H        0.52610    0.92620    0.27050    1.000
    C59      C        0.62480    0.78670    0.38560    1.000
    H59      H        0.63010    0.75150    0.43120    1.000
    C60      C        0.45510    0.87520    0.41590    1.000
    H60      H        0.43260    0.82820    0.44960    1.000
    H61      H        0.39760    0.89940    0.38410    1.000
    N1       N        0.94270    0.78320    0.29660    1.000
    N2       N        0.09320    0.82970    0.29530    1.000
    N3       N        0.51390    0.39650    0.24730    1.000
    N4       N        0.54290    0.52420    0.24370    1.000
    N5       N        0.79870    0.31400    0.89790    1.000
    N6       N        0.79720    0.42070    0.80920    1.000
    N7       N        0.20650    0.73010    0.91730    1.000
    N8       N        0.12970    0.72590    0.81430    1.000
    N9       N        0.35980    0.26760    0.33410    1.000
    N10      N        0.21240    0.23230    0.38880    1.000
    N11      N        0.38450    0.79240    0.69400    1.000
    N12      N        0.24030    0.88220    0.67700    1.000
    N13      N        0.82580    0.64180    0.24450    1.000
    N14      N        0.82610    0.60350    0.13540    1.000
    N15      N        0.69460    0.78200    0.33210    1.000
    N16      N        0.54480    0.84600    0.37030    1.000
    O1       O        0.84410    0.63530    0.42185    1.000
    O2       O        0.00100    0.59100    0.37611    1.000
    O3       O        0.80410    0.11870    0.98690    1.000
    O4       O        0.96100    0.15660    0.98250    1.000
    O5       O        0.60710    0.22440    0.00060    1.000
    O6       O        0.55200    0.35870    0.98660    1.000
    O7       O        0.45900    0.27390    0.15980    1.000
    O8       O        0.44760    0.14690    0.20710    1.000
    C61      C        0.90230    0.47490    0.00790    1.000
    H62      H        0.83610    0.45780    0.01350    1.000
    C62      C        0.47870    0.93910    0.46070    1.000
    C63      C        0.47680    0.02130    0.42730    1.000
    H63      H        0.46060    0.03630    0.37750    1.000
    C64      C        0.50160    0.91810    0.53380    1.000
    H64      H        0.50280    0.86340    0.55760    1.000
    Zn4      Zn       0.16774    0.29143    0.67405    1.000
    Zn5      Zn       0.24334    0.76305    0.01226    1.000
    Zn6      Zn       0.51340    0.72487    0.73608    1.000
    C65      C        0.06580    0.41170    0.57340    1.000
    C66      C        0.04760    0.46970    0.50030    1.000
    H65      H        0.04420    0.43650    0.46170    1.000
    H66      H        0.10770    0.49960    0.48780    1.000
    C67      C        0.09850    0.89750    0.01260    1.000
    C68      C        0.05430    0.98990    0.00520    1.000
    H67      H        0.09130    0.01990    0.96350    1.000
    H68      H        0.06980    0.00990    0.04970    1.000
    C69      C        0.46540    0.71410    0.99990    1.000
    C70      C        0.57390    0.73850    0.98400    1.000
    H69      H        0.59860    0.75070    0.02950    1.000
    H70      H        0.62070    0.69150    0.97010    1.000
    C71      C        0.58150    0.81330    0.92300    1.000
    H71      H        0.53350    0.86030    0.93600    1.000
    H72      H        0.65210    0.82800    0.92030    1.000
    C72      C        0.55590    0.79760    0.84640    1.000
    C73      C        0.05230    0.15310    0.76070    1.000
    H73      H        0.10490    0.13270    0.79420    1.000
    C74      C        0.96090    0.12420    0.76190    1.000
    H74      H        0.93850    0.08060    0.79570    1.000
    C75      C        0.96710    0.22480    0.67080    1.000
    H75      H        0.94860    0.26390    0.62910    1.000
    C76      C        0.49340    0.55650    0.82450    1.000
    H76      H        0.50860    0.57820    0.86580    1.000
    C77      C        0.47710    0.48030    0.82770    1.000
    H77      H        0.47880    0.43840    0.86900    1.000
    C78      C        0.46790    0.55170    0.71450    1.000
    H78      H        0.46220    0.56330    0.66320    1.000
    C79      C        0.79950    0.16140    0.68240    1.000
    H79      H        0.78300    0.10670    0.70470    1.000
    H80      H        0.80110    0.16450    0.62880    1.000
    C80      C        0.71490    0.22450    0.70420    1.000
    C81      C        0.64560    0.20700    0.76480    1.000
    H81      H        0.65580    0.15540    0.79520    1.000
    C82      C        0.56240    0.26440    0.78060    1.000
    H82      H        0.52020    0.25520    0.82390    1.000
    C83      C        0.54340    0.33910    0.72750    1.000
    C84      C        0.61520    0.35690    0.67580    1.000
    H83      H        0.60850    0.40980    0.64750    1.000
    C85      C        0.69970    0.30100    0.66140    1.000
    H84      H        0.74720    0.31520    0.62230    1.000
    C86      C        0.44170    0.39800    0.73150    1.000
    H85      H        0.39170    0.37050    0.76560    1.000
    H86      H        0.41230    0.41100    0.68270    1.000
    C87      C        0.11320    0.69680    0.14810    1.000
    H87      H        0.06110    0.74250    0.14220    1.000
    C88      C        0.11410    0.63070    0.20310    1.000
    H88      H        0.06380    0.62230    0.24170    1.000
    C89      C        0.25280    0.61390    0.13030    1.000
    H89      H        0.31610    0.59030    0.11030    1.000
    C90      C        0.73090    0.32010    0.12590    1.000
    H90      H        0.66470    0.34740    0.11300    1.000
    C91      C        0.77580    0.32490    0.18790    1.000
    H91      H        0.74930    0.35580    0.22490    1.000
    C92      C        0.87800    0.24270    0.12160    1.000
    H92      H        0.93510    0.20680    0.10680    1.000
    C93      C        0.23790    0.49740    0.23570    1.000
    H93      H        0.30620    0.47530    0.21620    1.000
    H94      H        0.24550    0.50460    0.28660    1.000
    C94      C        0.16240    0.43620    0.23510    1.000
    C95      C        0.16750    0.38680    0.17850    1.000
    H95      H        0.21810    0.39250    0.13980    1.000
    C96      C        0.09870    0.33090    0.18030    1.000
    H96      H        0.10310    0.29900    0.14250    1.000
    C97      C        0.02290    0.32040    0.23690    1.000
    C98      C        0.01710    0.36900    0.29050    1.000
    H97      H        0.96530    0.36410    0.32850    1.000
    C99      C        0.08620    0.42540    0.28980    1.000
    H98      H        0.08070    0.45710    0.32780    1.000
    C100     C        0.94960    0.25570    0.24200    1.000
    H99      H        0.91420    0.25020    0.29090    1.000
    H100     H        0.99100    0.20260    0.23740    1.000
    C101     C        0.66780    0.68710    0.60860    1.000
    H101     H        0.63070    0.64760    0.59580    1.000
    C102     C        0.75700    0.70970    0.57470    1.000
    H102     H        0.79180    0.68970    0.53370    1.000
    C103     C        0.71490    0.77930    0.66560    1.000
    H103     H        0.71680    0.81580    0.69900    1.000
    C104     C        0.66910    0.22490    0.36370    1.000
    H104     H        0.64910    0.26790    0.39100    1.000
    C105     C        0.75530    0.16820    0.37300    1.000
    H105     H        0.80430    0.16470    0.40880    1.000
    C106     C        0.66980    0.14490    0.28310    1.000
    H106     H        0.65150    0.12050    0.24430    1.000
    C107     C        0.88020    0.81190    0.59140    1.000
    H107     H        0.89040    0.84200    0.63100    1.000
    H108     H        0.94220    0.77160    0.58680    1.000
    C108     C        0.86770    0.87230    0.51910    1.000
    C109     C        0.77140    0.89940    0.48640    1.000
    H109     H        0.71140    0.88010    0.51010    1.000
    C110     C        0.76210    0.95450    0.41920    1.000
    H110     H        0.69710    0.97000    0.39810    1.000
    C111     C        0.84910    0.98570    0.38440    1.000
    C112     C        0.94380    0.95410    0.41260    1.000
    H111     H        0.00400    0.97250    0.38830    1.000
    C113     C        0.95360    0.89540    0.47630    1.000
    H112     H        0.02030    0.87080    0.49070    1.000
    C114     C        0.83830    0.04850    0.31290    1.000
    H113     H        0.81910    0.02190    0.27330    1.000
    H114     H        0.90520    0.06840    0.29830    1.000
    C115     C        0.16320    0.44310    0.74590    1.000
    H115     H        0.15700    0.47850    0.70050    1.000
    C116     C        0.16270    0.46730    0.81360    1.000
    H116     H        0.15600    0.52160    0.82310    1.000
    C117     C        0.18030    0.33310    0.82800    1.000
    H117     H        0.18820    0.27770    0.85050    1.000
    C118     C        0.17660    0.39280    0.94620    1.000
    H118     H        0.17480    0.33590    0.97080    1.000
    H119     H        0.24160    0.41000    0.95780    1.000
    C119     C        0.08570    0.44760    0.97500    1.000
    C120     C        0.98520    0.42380    0.98310    1.000
    H120     H        0.97490    0.37290    0.97150    1.000
    C121     C        0.34300    0.15620    0.72390    1.000
    H121     H        0.30980    0.14360    0.77040    1.000
    C122     C        0.43270    0.11770    0.70170    1.000
    H122     H        0.47390    0.07380    0.72950    1.000
    C123     C        0.37520    0.21330    0.61440    1.000
    H123     H        0.36990    0.24850    0.56880    1.000
    C124     C        0.54490    0.12480    0.58410    1.000
    H124     H        0.56740    0.17180    0.55040    1.000
    H125     H        0.60240    0.10060    0.61590    1.000
    N17      N        0.05730    0.21680    0.70340    1.000
    N18      N        0.90680    0.17030    0.70470    1.000
    N19      N        0.48610    0.60350    0.75270    1.000
    N20      N        0.45710    0.47580    0.75630    1.000
    N21      N        0.20130    0.68600    0.10210    1.000
    N22      N        0.20280    0.57930    0.19080    1.000
    N23      N        0.79350    0.26990    0.08270    1.000
    N24      N        0.87030    0.27410    0.18570    1.000
    N25      N        0.64020    0.73240    0.66590    1.000
    N26      N        0.78760    0.76770    0.61120    1.000
    N27      N        0.61550    0.20760    0.30600    1.000
    N28      N        0.75970    0.11780    0.32300    1.000
    N29      N        0.17420    0.35820    0.75550    1.000
    N30      N        0.17390    0.39650    0.86460    1.000
    N31      N        0.30540    0.21800    0.66790    1.000
    N32      N        0.45520    0.15400    0.62970    1.000
    O9       O        0.15590    0.36470    0.57815    1.000
    O10      O        0.99900    0.40900    0.62389    1.000
    O11      O        0.19590    0.88130    0.01310    1.000
    O12      O        0.03900    0.84340    0.01750    1.000
    O13      O        0.39290    0.77560    0.99940    1.000
    O14      O        0.44800    0.64130    0.01340    1.000
    O15      O        0.54100    0.72610    0.84020    1.000
    O16      O        0.55240    0.85310    0.79290    1.000
    C125     C        0.09770    0.52510    0.99210    1.000
    H126     H        0.16390    0.54220    0.98650    1.000
    C126     C        0.52130    0.06090    0.53930    1.000
    C127     C        0.52320    0.97870    0.57270    1.000
    H127     H        0.53940    0.96370    0.62250    1.000
    C128     C        0.49840    0.08190    0.46620    1.000
    H128     H        0.49720    0.13660    0.44240    1.000
