# CIF file generated by openbabel 3.1.0, see https://openbabel.org
data_I
_chemical_name_common 'image0'
_cell_length_a 45.8487
_cell_length_b 45.8487
_cell_length_c 45.8487
_cell_angle_alpha 33.465
_cell_angle_beta 33.465
_cell_angle_gamma 33.465
_space_group_name_H-M_alt 'P 1'
_space_group_name_Hall 'P 1'
loop_
    _symmetry_equiv_pos_as_xyz
    x,y,z
loop_
    _atom_site_label
    _atom_site_type_symbol
    _atom_site_fract_x
    _atom_site_fract_y
    _atom_site_fract_z
    _atom_site_occupancy
    Cu1      Cu       0.68653    0.24886    0.15644    1.000
    O1       O        0.60910    0.27250    0.22130    1.000
    Cu2      Cu       0.70865    0.14265    0.24505    1.000
    O2       O        0.65690    0.22370    0.16760    1.000
    O3       O        0.72040    0.25690    0.15810    1.000
    O4       O        0.76690    0.20980    0.10590    1.000
    C1       C        0.59480    0.23540    0.27570    1.000
    O5       O        0.62680    0.18040    0.29680    1.000
    O6       O        0.78620    0.12060    0.18140    1.000
    O7       O        0.67910    0.13290    0.23990    1.000
    O8       O        0.73400    0.16970    0.23710    1.000
    C2       C        0.65760    0.17360    0.20630    1.000
    C3       C        0.73720    0.21650    0.19630    1.000
    C4       C        0.80100    0.15560    0.12640    1.000
    C5       C        0.53340    0.25880    0.31790    1.000
    C6       C        0.63190    0.16410    0.20800    1.000
    C7       C        0.76630    0.22780    0.18960    1.000
    C8       C        0.86140    0.13340    0.08530    1.000
    H1       H        0.51970    0.23220    0.35770    1.000
    C9       C        0.49750    0.31550    0.30180    1.000
    C10      C        0.61220    0.20180    0.17220    1.000
    H2       H        0.63000    0.12840    0.23700    1.000
    H3       H        0.77000    0.26270    0.15840    1.000
    C11      C        0.78570    0.19130    0.22510    1.000
    C12      C        0.90210    0.07830    0.10080    1.000
    H4       H        0.87250    0.15970    0.04500    1.000
    H5       H        0.51380    0.34060    0.26210    1.000
    C13      C        0.43390    0.34520    0.33850    1.000
    H6       H        0.61790    0.23540    0.14130    1.000
    C14      C        0.58140    0.19830    0.17400    1.000
    H7       H        0.78010    0.15750    0.25640    1.000
    C15      C        0.81580    0.19620    0.22230    1.000
    H8       H        0.88950    0.05260    0.14120    1.000
    C16      C        0.96640    0.05210    0.06090    1.000
    C17      C        0.40110    0.40450    0.31150    1.000
    C18      C        0.56930    0.15150    0.21660    1.000
    C19      C        0.56400    0.24350    0.13080    1.000
    C20      C        0.82890    0.24320    0.17750    1.000
    C21      C        0.83460    0.15050    0.26590    1.000
    C22      C        0.99230    0.08690    0.00020    1.000
    H9       H        0.41960    0.42620    0.27070    1.000
    H10      H        0.58130    0.12040    0.24590    1.000
    C23      C        0.54090    0.14820    0.21850    1.000
    C24      C        0.53300    0.24480    0.13030    1.000
    H11      H        0.57340    0.27450    0.10070    1.000
    C25      C        0.85750    0.24580    0.17680    1.000
    H12      H        0.81830    0.27340    0.14750    1.000
    C26      C        0.86420    0.15080    0.26560    1.000
    H13      H        0.82640    0.11860    0.29620    1.000
    H14      H        0.96910    0.12740    0.98270    1.000
    C27      C        0.52750    0.09830    0.26660    1.000
    C28      C        0.52230    0.19400    0.17640    1.000
    C29      C        0.51070    0.29420    0.08720    1.000
    C30      C        0.86940    0.29800    0.12850    1.000
    C31      C        0.87580    0.19980    0.22030    1.000
    C32      C        0.88550    0.10030    0.31060    1.000
    C33      C        0.53880    0.05250    0.31030    1.000
    H15      H        0.50690    0.10080    0.26440    1.000
    H16      H        0.50250    0.19250    0.17730    1.000
    C34      C        0.52010    0.34020    0.04210    1.000
    H17      H        0.48740    0.29240    0.09290    1.000
    C35      C        0.88810    0.31070    0.12550    1.000
    H18      H        0.86220    0.32390    0.09730    1.000
    H19      H        0.89540    0.20140    0.21960    1.000
    H20      H        0.87280    0.07170    0.34150    1.000
    C36      C        0.91850    0.09150    0.31220    1.000
    H21      H        0.56160    0.04750    0.31200    1.000
    C37      C        0.52010    0.00520    0.35950    1.000
    H22      H        0.54450    0.34180    0.03510    1.000
    C38      C        0.49400    0.39210    0.99920    1.000
    H23      H        0.88960    0.28880    0.15900    1.000
    C39      C        0.90810    0.35790    0.07260    1.000
    C40      C        0.93860    0.03930    0.35900    1.000
    H24      H        0.93150    0.11980    0.28190    1.000
    O9       O        0.49220    0.00940    0.35680    1.000
    O10      O        0.53130    0.96700    0.40280    1.000
    O11      O        0.46490    0.38670    0.00790    1.000
    O12      O        0.50840    0.43240    0.96000    1.000
    O13      O        0.93520    0.35670    0.07360    1.000
    O14      O        0.89430    0.39520    0.03260    1.000
    O15      O        0.92420    0.99900    0.39820    1.000
    O16      O        0.97260    0.03770    0.35240    1.000
    Cu3      Cu       0.45590    0.95557    0.42535    1.000
    Cu4      Cu       0.50695    0.90475    0.47452    1.000
    Cu5      Cu       0.15644    0.68653    0.24886    1.000
    O17      O        0.22130    0.60910    0.27250    1.000
    Cu6      Cu       0.24505    0.70865    0.14265    1.000
    O18      O        0.16760    0.65690    0.22370    1.000
    O19      O        0.15810    0.72040    0.25690    1.000
    O20      O        0.10590    0.76690    0.20980    1.000
    C41      C        0.27570    0.59480    0.23540    1.000
    O21      O        0.29680    0.62680    0.18040    1.000
    O22      O        0.18140    0.78620    0.12060    1.000
    O23      O        0.23990    0.67910    0.13290    1.000
    O24      O        0.23710    0.73400    0.16970    1.000
    C42      C        0.20630    0.65760    0.17360    1.000
    C43      C        0.19630    0.73720    0.21650    1.000
    C44      C        0.12640    0.80100    0.15560    1.000
    C45      C        0.31790    0.53340    0.25880    1.000
    C46      C        0.20800    0.63190    0.16410    1.000
    C47      C        0.18960    0.76630    0.22780    1.000
    C48      C        0.08530    0.86140    0.13340    1.000
    H25      H        0.35770    0.51970    0.23220    1.000
    C49      C        0.30180    0.49750    0.31550    1.000
    C50      C        0.17220    0.61220    0.20180    1.000
    H26      H        0.23700    0.63000    0.12840    1.000
    H27      H        0.15840    0.77000    0.26270    1.000
    C51      C        0.22510    0.78570    0.19130    1.000
    C52      C        0.10080    0.90210    0.07830    1.000
    H28      H        0.04500    0.87250    0.15970    1.000
    H29      H        0.26210    0.51380    0.34060    1.000
    C53      C        0.33850    0.43390    0.34520    1.000
    H30      H        0.14130    0.61790    0.23540    1.000
    C54      C        0.17400    0.58140    0.19830    1.000
    H31      H        0.25640    0.78010    0.15750    1.000
    C55      C        0.22230    0.81580    0.19620    1.000
    H32      H        0.14120    0.88950    0.05260    1.000
    C56      C        0.06090    0.96640    0.05210    1.000
    C57      C        0.31150    0.40110    0.40450    1.000
    C58      C        0.21660    0.56930    0.15150    1.000
    C59      C        0.13080    0.56400    0.24350    1.000
    C60      C        0.17750    0.82890    0.24320    1.000
    C61      C        0.26590    0.83460    0.15050    1.000
    C62      C        0.00020    0.99230    0.08690    1.000
    H33      H        0.27070    0.41960    0.42620    1.000
    H34      H        0.24590    0.58130    0.12040    1.000
    C63      C        0.21850    0.54090    0.14820    1.000
    C64      C        0.13030    0.53300    0.24480    1.000
    H35      H        0.10070    0.57340    0.27450    1.000
    C65      C        0.17680    0.85750    0.24580    1.000
    H36      H        0.14750    0.81830    0.27340    1.000
    C66      C        0.26560    0.86420    0.15080    1.000
    H37      H        0.29620    0.82640    0.11860    1.000
    H38      H        0.98270    0.96910    0.12740    1.000
    C67      C        0.26660    0.52750    0.09830    1.000
    C68      C        0.17640    0.52230    0.19400    1.000
    C69      C        0.08720    0.51070    0.29420    1.000
    C70      C        0.12850    0.86940    0.29800    1.000
    C71      C        0.22030    0.87580    0.19980    1.000
    C72      C        0.31060    0.88550    0.10030    1.000
    C73      C        0.31030    0.53880    0.05250    1.000
    H39      H        0.26440    0.50690    0.10080    1.000
    H40      H        0.17730    0.50250    0.19250    1.000
    C74      C        0.04210    0.52010    0.34020    1.000
    H41      H        0.09290    0.48740    0.29240    1.000
    C75      C        0.12550    0.88810    0.31070    1.000
    H42      H        0.09730    0.86220    0.32390    1.000
    H43      H        0.21960    0.89540    0.20140    1.000
    H44      H        0.34150    0.87280    0.07170    1.000
    C76      C        0.31220    0.91850    0.09150    1.000
    H45      H        0.31200    0.56160    0.04750    1.000
    C77      C        0.35950    0.52010    0.00520    1.000
    H46      H        0.03510    0.54450    0.34180    1.000
    C78      C        0.99920    0.49400    0.39210    1.000
    H47      H        0.15900    0.88960    0.28880    1.000
    C79      C        0.07260    0.90810    0.35790    1.000
    C80      C        0.35900    0.93860    0.03930    1.000
    H48      H        0.28190    0.93150    0.11980    1.000
    O25      O        0.35680    0.49220    0.00940    1.000
    O26      O        0.40280    0.53130    0.96700    1.000
    O27      O        0.00790    0.46490    0.38670    1.000
    O28      O        0.96000    0.50840    0.43240    1.000
    O29      O        0.07360    0.93520    0.35670    1.000
    O30      O        0.03260    0.89430    0.39520    1.000
    O31      O        0.39820    0.92420    0.99900    1.000
    O32      O        0.35240    0.97260    0.03770    1.000
    Cu7      Cu       0.42535    0.45590    0.95557    1.000
    Cu8      Cu       0.47452    0.50695    0.90475    1.000
    Cu9      Cu       0.24886    0.15644    0.68653    1.000
    O33      O        0.27250    0.22130    0.60910    1.000
    Cu10     Cu       0.14265    0.24505    0.70865    1.000
    O34      O        0.22370    0.16760    0.65690    1.000
    O35      O        0.25690    0.15810    0.72040    1.000
    O36      O        0.20980    0.10590    0.76690    1.000
    C81      C        0.23540    0.27570    0.59480    1.000
    O37      O        0.18040    0.29680    0.62680    1.000
    O38      O        0.12060    0.18140    0.78620    1.000
    O39      O        0.13290    0.23990    0.67910    1.000
    O40      O        0.16970    0.23710    0.73400    1.000
    C82      C        0.17360    0.20630    0.65760    1.000
    C83      C        0.21650    0.19630    0.73720    1.000
    C84      C        0.15560    0.12640    0.80100    1.000
    C85      C        0.25880    0.31790    0.53340    1.000
    C86      C        0.16410    0.20800    0.63190    1.000
    C87      C        0.22780    0.18960    0.76630    1.000
    C88      C        0.13340    0.08530    0.86140    1.000
    H49      H        0.23220    0.35770    0.51970    1.000
    C89      C        0.31550    0.30180    0.49750    1.000
    C90      C        0.20180    0.17220    0.61220    1.000
    H50      H        0.12840    0.23700    0.63000    1.000
    H51      H        0.26270    0.15840    0.77000    1.000
    C91      C        0.19130    0.22510    0.78570    1.000
    C92      C        0.07830    0.10080    0.90210    1.000
    H52      H        0.15970    0.04500    0.87250    1.000
    H53      H        0.34060    0.26210    0.51380    1.000
    C93      C        0.34520    0.33850    0.43390    1.000
    H54      H        0.23540    0.14130    0.61790    1.000
    C94      C        0.19830    0.17400    0.58140    1.000
    H55      H        0.15750    0.25640    0.78010    1.000
    C95      C        0.19620    0.22230    0.81580    1.000
    H56      H        0.05260    0.14120    0.88950    1.000
    C96      C        0.05210    0.06090    0.96640    1.000
    C97      C        0.40450    0.31150    0.40110    1.000
    C98      C        0.15150    0.21660    0.56930    1.000
    C99      C        0.24350    0.13080    0.56400    1.000
    C100     C        0.24320    0.17750    0.82890    1.000
    C101     C        0.15050    0.26590    0.83460    1.000
    C102     C        0.08690    0.00020    0.99230    1.000
    H57      H        0.42620    0.27070    0.41960    1.000
    H58      H        0.12040    0.24590    0.58130    1.000
    C103     C        0.14820    0.21850    0.54090    1.000
    C104     C        0.24480    0.13030    0.53300    1.000
    H59      H        0.27450    0.10070    0.57340    1.000
    C105     C        0.24580    0.17680    0.85750    1.000
    H60      H        0.27340    0.14750    0.81830    1.000
    C106     C        0.15080    0.26560    0.86420    1.000
    H61      H        0.11860    0.29620    0.82640    1.000
    H62      H        0.12740    0.98270    0.96910    1.000
    C107     C        0.09830    0.26660    0.52750    1.000
    C108     C        0.19400    0.17640    0.52230    1.000
    C109     C        0.29420    0.08720    0.51070    1.000
    C110     C        0.29800    0.12850    0.86940    1.000
    C111     C        0.19980    0.22030    0.87580    1.000
    C112     C        0.10030    0.31060    0.88550    1.000
    C113     C        0.05250    0.31030    0.53880    1.000
    H63      H        0.10080    0.26440    0.50690    1.000
    H64      H        0.19250    0.17730    0.50250    1.000
    C114     C        0.34020    0.04210    0.52010    1.000
    H65      H        0.29240    0.09290    0.48740    1.000
    C115     C        0.31070    0.12550    0.88810    1.000
    H66      H        0.32390    0.09730    0.86220    1.000
    H67      H        0.20140    0.21960    0.89540    1.000
    H68      H        0.07170    0.34150    0.87280    1.000
    C116     C        0.09150    0.31220    0.91850    1.000
    H69      H        0.04750    0.31200    0.56160    1.000
    C117     C        0.00520    0.35950    0.52010    1.000
    H70      H        0.34180    0.03510    0.54450    1.000
    C118     C        0.39210    0.99920    0.49400    1.000
    H71      H        0.28880    0.15900    0.88960    1.000
    C119     C        0.35790    0.07260    0.90810    1.000
    C120     C        0.03930    0.35900    0.93860    1.000
    H72      H        0.11980    0.28190    0.93150    1.000
    O41      O        0.00940    0.35680    0.49220    1.000
    O42      O        0.96700    0.40280    0.53130    1.000
    O43      O        0.38670    0.00790    0.46490    1.000
    O44      O        0.43240    0.96000    0.50840    1.000
    O45      O        0.35670    0.07360    0.93520    1.000
    O46      O        0.39520    0.03260    0.89430    1.000
    O47      O        0.99900    0.39820    0.92420    1.000
    O48      O        0.03770    0.35240    0.97260    1.000
    Cu11     Cu       0.95557    0.42535    0.45590    1.000
    Cu12     Cu       0.90475    0.47452    0.50695    1.000
    Cu13     Cu       0.74886    0.18653    0.65644    1.000
    O49      O        0.77250    0.10910    0.72130    1.000
    Cu14     Cu       0.64265    0.20865    0.74505    1.000
    O50      O        0.72370    0.15690    0.66760    1.000
    O51      O        0.75690    0.22040    0.65810    1.000
    O52      O        0.70980    0.26690    0.60590    1.000
    C121     C        0.73540    0.09480    0.77570    1.000
    O53      O        0.68040    0.12680    0.79680    1.000
    O54      O        0.62060    0.28620    0.68140    1.000
    O55      O        0.63290    0.17910    0.73990    1.000
    O56      O        0.66970    0.23400    0.73710    1.000
    C122     C        0.67360    0.15760    0.70630    1.000
    C123     C        0.71650    0.23720    0.69630    1.000
    C124     C        0.65560    0.30100    0.62640    1.000
    C125     C        0.75880    0.03340    0.81790    1.000
    C126     C        0.66410    0.13190    0.70800    1.000
    C127     C        0.72780    0.26630    0.68960    1.000
    C128     C        0.63340    0.36140    0.58530    1.000
    H73      H        0.73220    0.01970    0.85770    1.000
    C129     C        0.81550    0.99750    0.80180    1.000
    C130     C        0.70180    0.11220    0.67220    1.000
    H74      H        0.62840    0.13000    0.73700    1.000
    H75      H        0.76270    0.27000    0.65840    1.000
    C131     C        0.69130    0.28570    0.72510    1.000
    C132     C        0.57830    0.40210    0.60080    1.000
    H76      H        0.65970    0.37250    0.54500    1.000
    H77      H        0.84060    0.01380    0.76210    1.000
    C133     C        0.84520    0.93390    0.83850    1.000
    H78      H        0.73540    0.11790    0.64130    1.000
    C134     C        0.69830    0.08140    0.67400    1.000
    H79      H        0.65750    0.28010    0.75640    1.000
    C135     C        0.69620    0.31580    0.72230    1.000
    H80      H        0.55260    0.38950    0.64120    1.000
    C136     C        0.55210    0.46640    0.56090    1.000
    C137     C        0.90450    0.90110    0.81150    1.000
    C138     C        0.65150    0.06930    0.71660    1.000
    C139     C        0.74350    0.06400    0.63080    1.000
    C140     C        0.74320    0.32890    0.67750    1.000
    C141     C        0.65050    0.33460    0.76590    1.000
    C142     C        0.58690    0.49230    0.50020    1.000
    H81      H        0.92620    0.91960    0.77070    1.000
    H82      H        0.62040    0.08130    0.74590    1.000
    C143     C        0.64820    0.04090    0.71850    1.000
    C144     C        0.74480    0.03300    0.63030    1.000
    H83      H        0.77450    0.07340    0.60070    1.000
    C145     C        0.74580    0.35750    0.67680    1.000
    H84      H        0.77340    0.31830    0.64750    1.000
    C146     C        0.65080    0.36420    0.76560    1.000
    H85      H        0.61860    0.32640    0.79620    1.000
    H86      H        0.62740    0.46910    0.48270    1.000
    C147     C        0.59830    0.02750    0.76660    1.000
    C148     C        0.69400    0.02230    0.67640    1.000
    C149     C        0.79420    0.01070    0.58720    1.000
    C150     C        0.79800    0.36940    0.62850    1.000
    C151     C        0.69980    0.37580    0.72030    1.000
    C152     C        0.60030    0.38550    0.81060    1.000
    C153     C        0.55250    0.03880    0.81030    1.000
    H87      H        0.60080    0.00690    0.76440    1.000
    H88      H        0.69250    0.00250    0.67730    1.000
    C154     C        0.84020    0.02010    0.54210    1.000
    H89      H        0.79240    0.98740    0.59290    1.000
    C155     C        0.81070    0.38810    0.62550    1.000
    H90      H        0.82390    0.36220    0.59730    1.000
    H91      H        0.70140    0.39540    0.71960    1.000
    H92      H        0.57170    0.37280    0.84150    1.000
    C156     C        0.59150    0.41850    0.81220    1.000
    H93      H        0.54750    0.06160    0.81200    1.000
    C157     C        0.50520    0.02010    0.85950    1.000
    H94      H        0.84180    0.04450    0.53510    1.000
    C158     C        0.89210    0.99400    0.49920    1.000
    H95      H        0.78880    0.38960    0.65900    1.000
    C159     C        0.85790    0.40810    0.57260    1.000
    C160     C        0.53930    0.43860    0.85900    1.000
    H96      H        0.61980    0.43150    0.78190    1.000
    O57      O        0.50940    0.99220    0.85680    1.000
    O58      O        0.46700    0.03130    0.90280    1.000
    O59      O        0.88670    0.96490    0.50790    1.000
    O60      O        0.93240    0.00840    0.46000    1.000
    O61      O        0.85670    0.43520    0.57360    1.000
    O62      O        0.89520    0.39430    0.53260    1.000
    O63      O        0.49900    0.42420    0.89820    1.000
    O64      O        0.53770    0.47260    0.85240    1.000
    Cu15     Cu       0.45557    0.95590    0.92535    1.000
    Cu16     Cu       0.40475    0.00695    0.97452    1.000
    Cu17     Cu       0.18653    0.65644    0.74886    1.000
    O65      O        0.10910    0.72130    0.77250    1.000
    Cu18     Cu       0.20865    0.74505    0.64265    1.000
    O66      O        0.15690    0.66760    0.72370    1.000
    O67      O        0.22040    0.65810    0.75690    1.000
    O68      O        0.26690    0.60590    0.70980    1.000
    C161     C        0.09480    0.77570    0.73540    1.000
    O69      O        0.12680    0.79680    0.68040    1.000
    O70      O        0.28620    0.68140    0.62060    1.000
    O71      O        0.17910    0.73990    0.63290    1.000
    O72      O        0.23400    0.73710    0.66970    1.000
    C162     C        0.15760    0.70630    0.67360    1.000
    C163     C        0.23720    0.69630    0.71650    1.000
    C164     C        0.30100    0.62640    0.65560    1.000
    C165     C        0.03340    0.81790    0.75880    1.000
    C166     C        0.13190    0.70800    0.66410    1.000
    C167     C        0.26630    0.68960    0.72780    1.000
    C168     C        0.36140    0.58530    0.63340    1.000
    H97      H        0.01970    0.85770    0.73220    1.000
    C169     C        0.99750    0.80180    0.81550    1.000
    C170     C        0.11220    0.67220    0.70180    1.000
    H98      H        0.13000    0.73700    0.62840    1.000
    H99      H        0.27000    0.65840    0.76270    1.000
    C171     C        0.28570    0.72510    0.69130    1.000
    C172     C        0.40210    0.60080    0.57830    1.000
    H100     H        0.37250    0.54500    0.65970    1.000
    H101     H        0.01380    0.76210    0.84060    1.000
    C173     C        0.93390    0.83850    0.84520    1.000
    H102     H        0.11790    0.64130    0.73540    1.000
    C174     C        0.08140    0.67400    0.69830    1.000
    H103     H        0.28010    0.75640    0.65750    1.000
    C175     C        0.31580    0.72230    0.69620    1.000
    H104     H        0.38950    0.64120    0.55260    1.000
    C176     C        0.46640    0.56090    0.55210    1.000
    C177     C        0.90110    0.81150    0.90450    1.000
    C178     C        0.06930    0.71660    0.65150    1.000
    C179     C        0.06400    0.63080    0.74350    1.000
    C180     C        0.32890    0.67750    0.74320    1.000
    C181     C        0.33460    0.76590    0.65050    1.000
    C182     C        0.49230    0.50020    0.58690    1.000
    H105     H        0.91960    0.77070    0.92620    1.000
    H106     H        0.08130    0.74590    0.62040    1.000
    C183     C        0.04090    0.71850    0.64820    1.000
    C184     C        0.03300    0.63030    0.74480    1.000
    H107     H        0.07340    0.60070    0.77450    1.000
    C185     C        0.35750    0.67680    0.74580    1.000
    H108     H        0.31830    0.64750    0.77340    1.000
    C186     C        0.36420    0.76560    0.65080    1.000
    H109     H        0.32640    0.79620    0.61860    1.000
    H110     H        0.46910    0.48270    0.62740    1.000
    C187     C        0.02750    0.76660    0.59830    1.000
    C188     C        0.02230    0.67640    0.69400    1.000
    C189     C        0.01070    0.58720    0.79420    1.000
    C190     C        0.36940    0.62850    0.79800    1.000
    C191     C        0.37580    0.72030    0.69980    1.000
    C192     C        0.38550    0.81060    0.60030    1.000
    C193     C        0.03880    0.81030    0.55250    1.000
    H111     H        0.00690    0.76440    0.60080    1.000
    H112     H        0.00250    0.67730    0.69250    1.000
    C194     C        0.02010    0.54210    0.84020    1.000
    H113     H        0.98740    0.59290    0.79240    1.000
    C195     C        0.38810    0.62550    0.81070    1.000
    H114     H        0.36220    0.59730    0.82390    1.000
    H115     H        0.39540    0.71960    0.70140    1.000
    H116     H        0.37280    0.84150    0.57170    1.000
    C196     C        0.41850    0.81220    0.59150    1.000
    H117     H        0.06160    0.81200    0.54750    1.000
    C197     C        0.02010    0.85950    0.50520    1.000
    H118     H        0.04450    0.53510    0.84180    1.000
    C198     C        0.99400    0.49920    0.89210    1.000
    H119     H        0.38960    0.65900    0.78880    1.000
    C199     C        0.40810    0.57260    0.85790    1.000
    C200     C        0.43860    0.85900    0.53930    1.000
    H120     H        0.43150    0.78190    0.61980    1.000
    O73      O        0.99220    0.85680    0.50940    1.000
    O74      O        0.03130    0.90280    0.46700    1.000
    O75      O        0.96490    0.50790    0.88670    1.000
    O76      O        0.00840    0.46000    0.93240    1.000
    O77      O        0.43520    0.57360    0.85670    1.000
    O78      O        0.39430    0.53260    0.89520    1.000
    O79      O        0.42420    0.89820    0.49900    1.000
    O80      O        0.47260    0.85240    0.53770    1.000
    Cu19     Cu       0.95590    0.92535    0.45557    1.000
    Cu20     Cu       0.00695    0.97452    0.40475    1.000
    Cu21     Cu       0.65644    0.74886    0.18653    1.000
    O81      O        0.72130    0.77250    0.10910    1.000
    Cu22     Cu       0.74505    0.64265    0.20865    1.000
    O82      O        0.66760    0.72370    0.15690    1.000
    O83      O        0.65810    0.75690    0.22040    1.000
    O84      O        0.60590    0.70980    0.26690    1.000
    C201     C        0.77570    0.73540    0.09480    1.000
    O85      O        0.79680    0.68040    0.12680    1.000
    O86      O        0.68140    0.62060    0.28620    1.000
    O87      O        0.73990    0.63290    0.17910    1.000
    O88      O        0.73710    0.66970    0.23400    1.000
    C202     C        0.70630    0.67360    0.15760    1.000
    C203     C        0.69630    0.71650    0.23720    1.000
    C204     C        0.62640    0.65560    0.30100    1.000
    C205     C        0.81790    0.75880    0.03340    1.000
    C206     C        0.70800    0.66410    0.13190    1.000
    C207     C        0.68960    0.72780    0.26630    1.000
    C208     C        0.58530    0.63340    0.36140    1.000
    H121     H        0.85770    0.73220    0.01970    1.000
    C209     C        0.80180    0.81550    0.99750    1.000
    C210     C        0.67220    0.70180    0.11220    1.000
    H122     H        0.73700    0.62840    0.13000    1.000
    H123     H        0.65840    0.76270    0.27000    1.000
    C211     C        0.72510    0.69130    0.28570    1.000
    C212     C        0.60080    0.57830    0.40210    1.000
    H124     H        0.54500    0.65970    0.37250    1.000
    H125     H        0.76210    0.84060    0.01380    1.000
    C213     C        0.83850    0.84520    0.93390    1.000
    H126     H        0.64130    0.73540    0.11790    1.000
    C214     C        0.67400    0.69830    0.08140    1.000
    H127     H        0.75640    0.65750    0.28010    1.000
    C215     C        0.72230    0.69620    0.31580    1.000
    H128     H        0.64120    0.55260    0.38950    1.000
    C216     C        0.56090    0.55210    0.46640    1.000
    C217     C        0.81150    0.90450    0.90110    1.000
    C218     C        0.71660    0.65150    0.06930    1.000
    C219     C        0.63080    0.74350    0.06400    1.000
    C220     C        0.67750    0.74320    0.32890    1.000
    C221     C        0.76590    0.65050    0.33460    1.000
    C222     C        0.50020    0.58690    0.49230    1.000
    H129     H        0.77070    0.92620    0.91960    1.000
    H130     H        0.74590    0.62040    0.08130    1.000
    C223     C        0.71850    0.64820    0.04090    1.000
    C224     C        0.63030    0.74480    0.03300    1.000
    H131     H        0.60070    0.77450    0.07340    1.000
    C225     C        0.67680    0.74580    0.35750    1.000
    H132     H        0.64750    0.77340    0.31830    1.000
    C226     C        0.76560    0.65080    0.36420    1.000
    H133     H        0.79620    0.61860    0.32640    1.000
    H134     H        0.48270    0.62740    0.46910    1.000
    C227     C        0.76660    0.59830    0.02750    1.000
    C228     C        0.67640    0.69400    0.02230    1.000
    C229     C        0.58720    0.79420    0.01070    1.000
    C230     C        0.62850    0.79800    0.36940    1.000
    C231     C        0.72030    0.69980    0.37580    1.000
    C232     C        0.81060    0.60030    0.38550    1.000
    C233     C        0.81030    0.55250    0.03880    1.000
    H135     H        0.76440    0.60080    0.00690    1.000
    H136     H        0.67730    0.69250    0.00250    1.000
    C234     C        0.54210    0.84020    0.02010    1.000
    H137     H        0.59290    0.79240    0.98740    1.000
    C235     C        0.62550    0.81070    0.38810    1.000
    H138     H        0.59730    0.82390    0.36220    1.000
    H139     H        0.71960    0.70140    0.39540    1.000
    H140     H        0.84150    0.57170    0.37280    1.000
    C236     C        0.81220    0.59150    0.41850    1.000
    H141     H        0.81200    0.54750    0.06160    1.000
    C237     C        0.85950    0.50520    0.02010    1.000
    H142     H        0.53510    0.84180    0.04450    1.000
    C238     C        0.49920    0.89210    0.99400    1.000
    H143     H        0.65900    0.78880    0.38960    1.000
    C239     C        0.57260    0.85790    0.40810    1.000
    C240     C        0.85900    0.53930    0.43860    1.000
    H144     H        0.78190    0.61980    0.43150    1.000
    O89      O        0.85680    0.50940    0.99220    1.000
    O90      O        0.90280    0.46700    0.03130    1.000
    O91      O        0.50790    0.88670    0.96490    1.000
    O92      O        0.46000    0.93240    0.00840    1.000
    O93      O        0.57360    0.85670    0.43520    1.000
    O94      O        0.53260    0.89520    0.39430    1.000
    O95      O        0.89820    0.49900    0.42420    1.000
    O96      O        0.85240    0.53770    0.47260    1.000
    Cu23     Cu       0.92535    0.45557    0.95590    1.000
    Cu24     Cu       0.97452    0.40475    0.00695    1.000
    Cu25     Cu       0.25114    0.81347    0.34356    1.000
    O97      O        0.22750    0.89090    0.27870    1.000
    Cu26     Cu       0.35735    0.79135    0.25495    1.000
    O98      O        0.27630    0.84310    0.33240    1.000
    O99      O        0.24310    0.77960    0.34190    1.000
    O100     O        0.29020    0.73310    0.39410    1.000
    C241     C        0.26460    0.90520    0.22430    1.000
    O101     O        0.31960    0.87320    0.20320    1.000
    O102     O        0.37940    0.71380    0.31860    1.000
    O103     O        0.36710    0.82090    0.26010    1.000
    O104     O        0.33030    0.76600    0.26290    1.000
    C242     C        0.32640    0.84240    0.29370    1.000
    C243     C        0.28350    0.76280    0.30370    1.000
    C244     C        0.34440    0.69900    0.37360    1.000
    C245     C        0.24120    0.96660    0.18210    1.000
    C246     C        0.33590    0.86810    0.29200    1.000
    C247     C        0.27220    0.73370    0.31040    1.000
    C248     C        0.36660    0.63860    0.41470    1.000
    H145     H        0.26780    0.98030    0.14230    1.000
    C249     C        0.18450    0.00250    0.19820    1.000
    C250     C        0.29820    0.88780    0.32780    1.000
    H146     H        0.37160    0.87000    0.26300    1.000
    H147     H        0.23730    0.73000    0.34160    1.000
    C251     C        0.30870    0.71430    0.27490    1.000
    C252     C        0.42170    0.59790    0.39920    1.000
    H148     H        0.34030    0.62750    0.45500    1.000
    H149     H        0.15940    0.98620    0.23790    1.000
    C253     C        0.15480    0.06610    0.16150    1.000
    H150     H        0.26460    0.88210    0.35870    1.000
    C254     C        0.30170    0.91860    0.32600    1.000
    H151     H        0.34250    0.71990    0.24360    1.000
    C255     C        0.30380    0.68420    0.27770    1.000
    H152     H        0.44740    0.61050    0.35880    1.000
    C256     C        0.44790    0.53360    0.43910    1.000
    C257     C        0.09550    0.09890    0.18850    1.000
    C258     C        0.34850    0.93070    0.28340    1.000
    C259     C        0.25650    0.93600    0.36920    1.000
    C260     C        0.25680    0.67110    0.32250    1.000
    C261     C        0.34950    0.66540    0.23410    1.000
    C262     C        0.41310    0.50770    0.49980    1.000
    H153     H        0.07380    0.08040    0.22930    1.000
    H154     H        0.37960    0.91870    0.25410    1.000
    C263     C        0.35180    0.95910    0.28150    1.000
    C264     C        0.25520    0.96700    0.36970    1.000
    H155     H        0.22550    0.92660    0.39930    1.000
    C265     C        0.25420    0.64250    0.32320    1.000
    H156     H        0.22660    0.68170    0.35250    1.000
    C266     C        0.34920    0.63580    0.23440    1.000
    H157     H        0.38140    0.67360    0.20380    1.000
    H158     H        0.37260    0.53090    0.51730    1.000
    C267     C        0.40170    0.97250    0.23340    1.000
    C268     C        0.30600    0.97770    0.32360    1.000
    C269     C        0.20580    0.98930    0.41280    1.000
    C270     C        0.20200    0.63060    0.37150    1.000
    C271     C        0.30020    0.62420    0.27970    1.000
    C272     C        0.39970    0.61450    0.18940    1.000
    C273     C        0.44750    0.96120    0.18970    1.000
    H159     H        0.39920    0.99310    0.23560    1.000
    H160     H        0.30750    0.99750    0.32270    1.000
    C274     C        0.15980    0.97990    0.45790    1.000
    H161     H        0.20760    0.01260    0.40710    1.000
    C275     C        0.18930    0.61190    0.37450    1.000
    H162     H        0.17610    0.63780    0.40270    1.000
    H163     H        0.29860    0.60460    0.28040    1.000
    H164     H        0.42830    0.62720    0.15850    1.000
    C276     C        0.40850    0.58150    0.18780    1.000
    H165     H        0.45250    0.93840    0.18800    1.000
    C277     C        0.49480    0.97990    0.14050    1.000
    H166     H        0.15820    0.95550    0.46490    1.000
    C278     C        0.10790    0.00600    0.50080    1.000
    H167     H        0.21120    0.61040    0.34100    1.000
    C279     C        0.14210    0.59190    0.42740    1.000
    C280     C        0.46070    0.56140    0.14100    1.000
    H168     H        0.38020    0.56850    0.21810    1.000
    O105     O        0.49060    0.00780    0.14320    1.000
    O106     O        0.53300    0.96870    0.09720    1.000
    O107     O        0.11330    0.03510    0.49210    1.000
    O108     O        0.06760    0.99160    0.54000    1.000
    O109     O        0.14330    0.56480    0.42640    1.000
    O110     O        0.10480    0.60570    0.46740    1.000
    O111     O        0.50100    0.57580    0.10180    1.000
    O112     O        0.46230    0.52740    0.14760    1.000
    Cu27     Cu       0.54443    0.04410    0.07465    1.000
    Cu28     Cu       0.59525    0.99305    0.02548    1.000
    Cu29     Cu       0.81347    0.34356    0.25114    1.000
    O113     O        0.89090    0.27870    0.22750    1.000
    Cu30     Cu       0.79135    0.25495    0.35735    1.000
    O114     O        0.84310    0.33240    0.27630    1.000
    O115     O        0.77960    0.34190    0.24310    1.000
    O116     O        0.73310    0.39410    0.29020    1.000
    C281     C        0.90520    0.22430    0.26460    1.000
    O117     O        0.87320    0.20320    0.31960    1.000
    O118     O        0.71380    0.31860    0.37940    1.000
    O119     O        0.82090    0.26010    0.36710    1.000
    O120     O        0.76600    0.26290    0.33030    1.000
    C282     C        0.84240    0.29370    0.32640    1.000
    C283     C        0.76280    0.30370    0.28350    1.000
    C284     C        0.69900    0.37360    0.34440    1.000
    C285     C        0.96660    0.18210    0.24120    1.000
    C286     C        0.86810    0.29200    0.33590    1.000
    C287     C        0.73370    0.31040    0.27220    1.000
    C288     C        0.63860    0.41470    0.36660    1.000
    H169     H        0.98030    0.14230    0.26780    1.000
    C289     C        0.00250    0.19820    0.18450    1.000
    C290     C        0.88780    0.32780    0.29820    1.000
    H170     H        0.87000    0.26300    0.37160    1.000
    H171     H        0.73000    0.34160    0.23730    1.000
    C291     C        0.71430    0.27490    0.30870    1.000
    C292     C        0.59790    0.39920    0.42170    1.000
    H172     H        0.62750    0.45500    0.34030    1.000
    H173     H        0.98620    0.23790    0.15940    1.000
    C293     C        0.06610    0.16150    0.15480    1.000
    H174     H        0.88210    0.35870    0.26460    1.000
    C294     C        0.91860    0.32600    0.30170    1.000
    H175     H        0.71990    0.24360    0.34250    1.000
    C295     C        0.68420    0.27770    0.30380    1.000
    H176     H        0.61050    0.35880    0.44740    1.000
    C296     C        0.53360    0.43910    0.44790    1.000
    C297     C        0.09890    0.18850    0.09550    1.000
    C298     C        0.93070    0.28340    0.34850    1.000
    C299     C        0.93600    0.36920    0.25650    1.000
    C300     C        0.67110    0.32250    0.25680    1.000
    C301     C        0.66540    0.23410    0.34950    1.000
    C302     C        0.50770    0.49980    0.41310    1.000
    H177     H        0.08040    0.22930    0.07380    1.000
    H178     H        0.91870    0.25410    0.37960    1.000
    C303     C        0.95910    0.28150    0.35180    1.000
    C304     C        0.96700    0.36970    0.25520    1.000
    H179     H        0.92660    0.39930    0.22550    1.000
    C305     C        0.64250    0.32320    0.25420    1.000
    H180     H        0.68170    0.35250    0.22660    1.000
    C306     C        0.63580    0.23440    0.34920    1.000
    H181     H        0.67360    0.20380    0.38140    1.000
    H182     H        0.53090    0.51730    0.37260    1.000
    C307     C        0.97250    0.23340    0.40170    1.000
    C308     C        0.97770    0.32360    0.30600    1.000
    C309     C        0.98930    0.41280    0.20580    1.000
    C310     C        0.63060    0.37150    0.20200    1.000
    C311     C        0.62420    0.27970    0.30020    1.000
    C312     C        0.61450    0.18940    0.39970    1.000
    C313     C        0.96120    0.18970    0.44750    1.000
    H183     H        0.99310    0.23560    0.39920    1.000
    H184     H        0.99750    0.32270    0.30750    1.000
    C314     C        0.97990    0.45790    0.15980    1.000
    H185     H        0.01260    0.40710    0.20760    1.000
    C315     C        0.61190    0.37450    0.18930    1.000
    H186     H        0.63780    0.40270    0.17610    1.000
    H187     H        0.60460    0.28040    0.29860    1.000
    H188     H        0.62720    0.15850    0.42830    1.000
    C316     C        0.58150    0.18780    0.40850    1.000
    H189     H        0.93840    0.18800    0.45250    1.000
    C317     C        0.97990    0.14050    0.49480    1.000
    H190     H        0.95550    0.46490    0.15820    1.000
    C318     C        0.00600    0.50080    0.10790    1.000
    H191     H        0.61040    0.34100    0.21120    1.000
    C319     C        0.59190    0.42740    0.14210    1.000
    C320     C        0.56140    0.14100    0.46070    1.000
    H192     H        0.56850    0.21810    0.38020    1.000
    O121     O        0.00780    0.14320    0.49060    1.000
    O122     O        0.96870    0.09720    0.53300    1.000
    O123     O        0.03510    0.49210    0.11330    1.000
    O124     O        0.99160    0.54000    0.06760    1.000
    O125     O        0.56480    0.42640    0.14330    1.000
    O126     O        0.60570    0.46740    0.10480    1.000
    O127     O        0.57580    0.10180    0.50100    1.000
    O128     O        0.52740    0.14760    0.46230    1.000
    Cu31     Cu       0.04410    0.07465    0.54443    1.000
    Cu32     Cu       0.99305    0.02548    0.59525    1.000
    Cu33     Cu       0.34356    0.25114    0.81347    1.000
    O129     O        0.27870    0.22750    0.89090    1.000
    Cu34     Cu       0.25495    0.35735    0.79135    1.000
    O130     O        0.33240    0.27630    0.84310    1.000
    O131     O        0.34190    0.24310    0.77960    1.000
    O132     O        0.39410    0.29020    0.73310    1.000
    C321     C        0.22430    0.26460    0.90520    1.000
    O133     O        0.20320    0.31960    0.87320    1.000
    O134     O        0.31860    0.37940    0.71380    1.000
    O135     O        0.26010    0.36710    0.82090    1.000
    O136     O        0.26290    0.33030    0.76600    1.000
    C322     C        0.29370    0.32640    0.84240    1.000
    C323     C        0.30370    0.28350    0.76280    1.000
    C324     C        0.37360    0.34440    0.69900    1.000
    C325     C        0.18210    0.24120    0.96660    1.000
    C326     C        0.29200    0.33590    0.86810    1.000
    C327     C        0.31040    0.27220    0.73370    1.000
    C328     C        0.41470    0.36660    0.63860    1.000
    H193     H        0.14230    0.26780    0.98030    1.000
    C329     C        0.19820    0.18450    0.00250    1.000
    C330     C        0.32780    0.29820    0.88780    1.000
    H194     H        0.26300    0.37160    0.87000    1.000
    H195     H        0.34160    0.23730    0.73000    1.000
    C331     C        0.27490    0.30870    0.71430    1.000
    C332     C        0.39920    0.42170    0.59790    1.000
    H196     H        0.45500    0.34030    0.62750    1.000
    H197     H        0.23790    0.15940    0.98620    1.000
    C333     C        0.16150    0.15480    0.06610    1.000
    H198     H        0.35870    0.26460    0.88210    1.000
    C334     C        0.32600    0.30170    0.91860    1.000
    H199     H        0.24360    0.34250    0.71990    1.000
    C335     C        0.27770    0.30380    0.68420    1.000
    H200     H        0.35880    0.44740    0.61050    1.000
    C336     C        0.43910    0.44790    0.53360    1.000
    C337     C        0.18850    0.09550    0.09890    1.000
    C338     C        0.28340    0.34850    0.93070    1.000
    C339     C        0.36920    0.25650    0.93600    1.000
    C340     C        0.32250    0.25680    0.67110    1.000
    C341     C        0.23410    0.34950    0.66540    1.000
    C342     C        0.49980    0.41310    0.50770    1.000
    H201     H        0.22930    0.07380    0.08040    1.000
    H202     H        0.25410    0.37960    0.91870    1.000
    C343     C        0.28150    0.35180    0.95910    1.000
    C344     C        0.36970    0.25520    0.96700    1.000
    H203     H        0.39930    0.22550    0.92660    1.000
    C345     C        0.32320    0.25420    0.64250    1.000
    H204     H        0.35250    0.22660    0.68170    1.000
    C346     C        0.23440    0.34920    0.63580    1.000
    H205     H        0.20380    0.38140    0.67360    1.000
    H206     H        0.51730    0.37260    0.53090    1.000
    C347     C        0.23340    0.40170    0.97250    1.000
    C348     C        0.32360    0.30600    0.97770    1.000
    C349     C        0.41280    0.20580    0.98930    1.000
    C350     C        0.37150    0.20200    0.63060    1.000
    C351     C        0.27970    0.30020    0.62420    1.000
    C352     C        0.18940    0.39970    0.61450    1.000
    C353     C        0.18970    0.44750    0.96120    1.000
    H207     H        0.23560    0.39920    0.99310    1.000
    H208     H        0.32270    0.30750    0.99750    1.000
    C354     C        0.45790    0.15980    0.97990    1.000
    H209     H        0.40710    0.20760    0.01260    1.000
    C355     C        0.37450    0.18930    0.61190    1.000
    H210     H        0.40270    0.17610    0.63780    1.000
    H211     H        0.28040    0.29860    0.60460    1.000
    H212     H        0.15850    0.42830    0.62720    1.000
    C356     C        0.18780    0.40850    0.58150    1.000
    H213     H        0.18800    0.45250    0.93840    1.000
    C357     C        0.14050    0.49480    0.97990    1.000
    H214     H        0.46490    0.15820    0.95550    1.000
    C358     C        0.50080    0.10790    0.00600    1.000
    H215     H        0.34100    0.21120    0.61040    1.000
    C359     C        0.42740    0.14210    0.59190    1.000
    C360     C        0.14100    0.46070    0.56140    1.000
    H216     H        0.21810    0.38020    0.56850    1.000
    O137     O        0.14320    0.49060    0.00780    1.000
    O138     O        0.09720    0.53300    0.96870    1.000
    O139     O        0.49210    0.11330    0.03510    1.000
    O140     O        0.54000    0.06760    0.99160    1.000
    O141     O        0.42640    0.14330    0.56480    1.000
    O142     O        0.46740    0.10480    0.60570    1.000
    O143     O        0.10180    0.50100    0.57580    1.000
    O144     O        0.14760    0.46230    0.52740    1.000
    Cu35     Cu       0.07465    0.54443    0.04410    1.000
    Cu36     Cu       0.02548    0.59525    0.99305    1.000
    Cu37     Cu       0.31347    0.75114    0.84356    1.000
    O145     O        0.39090    0.72750    0.77870    1.000
    Cu38     Cu       0.29135    0.85735    0.75495    1.000
    O146     O        0.34310    0.77630    0.83240    1.000
    O147     O        0.27960    0.74310    0.84190    1.000
    O148     O        0.23310    0.79020    0.89410    1.000
    C361     C        0.40520    0.76460    0.72430    1.000
    O149     O        0.37320    0.81960    0.70320    1.000
    O150     O        0.21380    0.87940    0.81860    1.000
    O151     O        0.32090    0.86710    0.76010    1.000
    O152     O        0.26600    0.83030    0.76290    1.000
    C362     C        0.34240    0.82640    0.79370    1.000
    C363     C        0.26280    0.78350    0.80370    1.000
    C364     C        0.19900    0.84440    0.87360    1.000
    C365     C        0.46660    0.74120    0.68210    1.000
    C366     C        0.36810    0.83590    0.79200    1.000
    C367     C        0.23370    0.77220    0.81040    1.000
    C368     C        0.13860    0.86660    0.91470    1.000
    H217     H        0.48030    0.76780    0.64230    1.000
    C369     C        0.50250    0.68450    0.69820    1.000
    C370     C        0.38780    0.79820    0.82780    1.000
    H218     H        0.37000    0.87160    0.76300    1.000
    H219     H        0.23000    0.73730    0.84160    1.000
    C371     C        0.21430    0.80870    0.77490    1.000
    C372     C        0.09790    0.92170    0.89920    1.000
    H220     H        0.12750    0.84030    0.95500    1.000
    H221     H        0.48620    0.65940    0.73790    1.000
    C373     C        0.56610    0.65480    0.66150    1.000
    H222     H        0.38210    0.76460    0.85870    1.000
    C374     C        0.41860    0.80170    0.82600    1.000
    H223     H        0.21990    0.84250    0.74360    1.000
    C375     C        0.18420    0.80380    0.77770    1.000
    H224     H        0.11050    0.94740    0.85880    1.000
    C376     C        0.03360    0.94790    0.93910    1.000
    C377     C        0.59890    0.59550    0.68850    1.000
    C378     C        0.43070    0.84850    0.78340    1.000
    C379     C        0.43600    0.75650    0.86920    1.000
    C380     C        0.17110    0.75680    0.82250    1.000
    C381     C        0.16540    0.84950    0.73410    1.000
    C382     C        0.00770    0.91310    0.99980    1.000
    H225     H        0.58040    0.57380    0.72930    1.000
    H226     H        0.41870    0.87960    0.75410    1.000
    C383     C        0.45910    0.85180    0.78150    1.000
    C384     C        0.46700    0.75520    0.86970    1.000
    H227     H        0.42660    0.72550    0.89930    1.000
    C385     C        0.14250    0.75420    0.82320    1.000
    H228     H        0.18170    0.72660    0.85250    1.000
    C386     C        0.13580    0.84920    0.73440    1.000
    H229     H        0.17360    0.88140    0.70380    1.000
    H230     H        0.03090    0.87260    0.01730    1.000
    C387     C        0.47250    0.90170    0.73340    1.000
    C388     C        0.47770    0.80600    0.82360    1.000
    C389     C        0.48930    0.70580    0.91280    1.000
    C390     C        0.13060    0.70200    0.87150    1.000
    C391     C        0.12420    0.80020    0.77970    1.000
    C392     C        0.11450    0.89970    0.68940    1.000
    C393     C        0.46120    0.94750    0.68970    1.000
    H231     H        0.49310    0.89920    0.73560    1.000
    H232     H        0.49750    0.80750    0.82270    1.000
    C394     C        0.47990    0.65980    0.95790    1.000
    H233     H        0.51260    0.70760    0.90710    1.000
    C395     C        0.11190    0.68930    0.87450    1.000
    H234     H        0.13780    0.67610    0.90270    1.000
    H235     H        0.10460    0.79860    0.78040    1.000
    H236     H        0.12720    0.92830    0.65850    1.000
    C396     C        0.08150    0.90850    0.68780    1.000
    H237     H        0.43840    0.95250    0.68800    1.000
    C397     C        0.47990    0.99480    0.64050    1.000
    H238     H        0.45550    0.65820    0.96490    1.000
    C398     C        0.50600    0.60790    0.00080    1.000
    H239     H        0.11040    0.71120    0.84100    1.000
    C399     C        0.09190    0.64210    0.92740    1.000
    C400     C        0.06140    0.96070    0.64100    1.000
    H240     H        0.06850    0.88020    0.71810    1.000
    O153     O        0.50780    0.99060    0.64320    1.000
    O154     O        0.46870    0.03300    0.59720    1.000
    O155     O        0.53510    0.61330    0.99210    1.000
    O156     O        0.49160    0.56760    0.04000    1.000
    O157     O        0.06480    0.64330    0.92640    1.000
    O158     O        0.10570    0.60480    0.96740    1.000
    O159     O        0.07580    0.00100    0.60180    1.000
    O160     O        0.02740    0.96230    0.64760    1.000
    Cu39     Cu       0.54410    0.04443    0.57465    1.000
    Cu40     Cu       0.49305    0.09525    0.52548    1.000
    Cu41     Cu       0.84356    0.31347    0.75114    1.000
    O161     O        0.77870    0.39090    0.72750    1.000
    Cu42     Cu       0.75495    0.29135    0.85735    1.000
    O162     O        0.83240    0.34310    0.77630    1.000
    O163     O        0.84190    0.27960    0.74310    1.000
    O164     O        0.89410    0.23310    0.79020    1.000
    C401     C        0.72430    0.40520    0.76460    1.000
    O165     O        0.70320    0.37320    0.81960    1.000
    O166     O        0.81860    0.21380    0.87940    1.000
    O167     O        0.76010    0.32090    0.86710    1.000
    O168     O        0.76290    0.26600    0.83030    1.000
    C402     C        0.79370    0.34240    0.82640    1.000
    C403     C        0.80370    0.26280    0.78350    1.000
    C404     C        0.87360    0.19900    0.84440    1.000
    C405     C        0.68210    0.46660    0.74120    1.000
    C406     C        0.79200    0.36810    0.83590    1.000
    C407     C        0.81040    0.23370    0.77220    1.000
    C408     C        0.91470    0.13860    0.86660    1.000
    H241     H        0.64230    0.48030    0.76780    1.000
    C409     C        0.69820    0.50250    0.68450    1.000
    C410     C        0.82780    0.38780    0.79820    1.000
    H242     H        0.76300    0.37000    0.87160    1.000
    H243     H        0.84160    0.23000    0.73730    1.000
    C411     C        0.77490    0.21430    0.80870    1.000
    C412     C        0.89920    0.09790    0.92170    1.000
    H244     H        0.95500    0.12750    0.84030    1.000
    H245     H        0.73790    0.48620    0.65940    1.000
    C413     C        0.66150    0.56610    0.65480    1.000
    H246     H        0.85870    0.38210    0.76460    1.000
    C414     C        0.82600    0.41860    0.80170    1.000
    H247     H        0.74360    0.21990    0.84250    1.000
    C415     C        0.77770    0.18420    0.80380    1.000
    H248     H        0.85880    0.11050    0.94740    1.000
    C416     C        0.93910    0.03360    0.94790    1.000
    C417     C        0.68850    0.59890    0.59550    1.000
    C418     C        0.78340    0.43070    0.84850    1.000
    C419     C        0.86920    0.43600    0.75650    1.000
    C420     C        0.82250    0.17110    0.75680    1.000
    C421     C        0.73410    0.16540    0.84950    1.000
    C422     C        0.99980    0.00770    0.91310    1.000
    H249     H        0.72930    0.58040    0.57380    1.000
    H250     H        0.75410    0.41870    0.87960    1.000
    C423     C        0.78150    0.45910    0.85180    1.000
    C424     C        0.86970    0.46700    0.75520    1.000
    H251     H        0.89930    0.42660    0.72550    1.000
    C425     C        0.82320    0.14250    0.75420    1.000
    H252     H        0.85250    0.18170    0.72660    1.000
    C426     C        0.73440    0.13580    0.84920    1.000
    H253     H        0.70380    0.17360    0.88140    1.000
    H254     H        0.01730    0.03090    0.87260    1.000
    C427     C        0.73340    0.47250    0.90170    1.000
    C428     C        0.82360    0.47770    0.80600    1.000
    C429     C        0.91280    0.48930    0.70580    1.000
    C430     C        0.87150    0.13060    0.70200    1.000
    C431     C        0.77970    0.12420    0.80020    1.000
    C432     C        0.68940    0.11450    0.89970    1.000
    C433     C        0.68970    0.46120    0.94750    1.000
    H255     H        0.73560    0.49310    0.89920    1.000
    H256     H        0.82270    0.49750    0.80750    1.000
    C434     C        0.95790    0.47990    0.65980    1.000
    H257     H        0.90710    0.51260    0.70760    1.000
    C435     C        0.87450    0.11190    0.68930    1.000
    H258     H        0.90270    0.13780    0.67610    1.000
    H259     H        0.78040    0.10460    0.79860    1.000
    H260     H        0.65850    0.12720    0.92830    1.000
    C436     C        0.68780    0.08150    0.90850    1.000
    H261     H        0.68800    0.43840    0.95250    1.000
    C437     C        0.64050    0.47990    0.99480    1.000
    H262     H        0.96490    0.45550    0.65820    1.000
    C438     C        0.00080    0.50600    0.60790    1.000
    H263     H        0.84100    0.11040    0.71120    1.000
    C439     C        0.92740    0.09190    0.64210    1.000
    C440     C        0.64100    0.06140    0.96070    1.000
    H264     H        0.71810    0.06850    0.88020    1.000
    O169     O        0.64320    0.50780    0.99060    1.000
    O170     O        0.59720    0.46870    0.03300    1.000
    O171     O        0.99210    0.53510    0.61330    1.000
    O172     O        0.04000    0.49160    0.56760    1.000
    O173     O        0.92640    0.06480    0.64330    1.000
    O174     O        0.96740    0.10570    0.60480    1.000
    O175     O        0.60180    0.07580    0.00100    1.000
    O176     O        0.64760    0.02740    0.96230    1.000
    Cu43     Cu       0.57465    0.54410    0.04443    1.000
    Cu44     Cu       0.52548    0.49305    0.09525    1.000
    Cu45     Cu       0.75114    0.84356    0.31347    1.000
    O177     O        0.72750    0.77870    0.39090    1.000
    Cu46     Cu       0.85735    0.75495    0.29135    1.000
    O178     O        0.77630    0.83240    0.34310    1.000
    O179     O        0.74310    0.84190    0.27960    1.000
    O180     O        0.79020    0.89410    0.23310    1.000
    C441     C        0.76460    0.72430    0.40520    1.000
    O181     O        0.81960    0.70320    0.37320    1.000
    O182     O        0.87940    0.81860    0.21380    1.000
    O183     O        0.86710    0.76010    0.32090    1.000
    O184     O        0.83030    0.76290    0.26600    1.000
    C442     C        0.82640    0.79370    0.34240    1.000
    C443     C        0.78350    0.80370    0.26280    1.000
    C444     C        0.84440    0.87360    0.19900    1.000
    C445     C        0.74120    0.68210    0.46660    1.000
    C446     C        0.83590    0.79200    0.36810    1.000
    C447     C        0.77220    0.81040    0.23370    1.000
    C448     C        0.86660    0.91470    0.13860    1.000
    H265     H        0.76780    0.64230    0.48030    1.000
    C449     C        0.68450    0.69820    0.50250    1.000
    C450     C        0.79820    0.82780    0.38780    1.000
    H266     H        0.87160    0.76300    0.37000    1.000
    H267     H        0.73730    0.84160    0.23000    1.000
    C451     C        0.80870    0.77490    0.21430    1.000
    C452     C        0.92170    0.89920    0.09790    1.000
    H268     H        0.84030    0.95500    0.12750    1.000
    H269     H        0.65940    0.73790    0.48620    1.000
    C453     C        0.65480    0.66150    0.56610    1.000
    H270     H        0.76460    0.85870    0.38210    1.000
    C454     C        0.80170    0.82600    0.41860    1.000
    H271     H        0.84250    0.74360    0.21990    1.000
    C455     C        0.80380    0.77770    0.18420    1.000
    H272     H        0.94740    0.85880    0.11050    1.000
    C456     C        0.94790    0.93910    0.03360    1.000
    C457     C        0.59550    0.68850    0.59890    1.000
    C458     C        0.84850    0.78340    0.43070    1.000
    C459     C        0.75650    0.86920    0.43600    1.000
    C460     C        0.75680    0.82250    0.17110    1.000
    C461     C        0.84950    0.73410    0.16540    1.000
    C462     C        0.91310    0.99980    0.00770    1.000
    H273     H        0.57380    0.72930    0.58040    1.000
    H274     H        0.87960    0.75410    0.41870    1.000
    C463     C        0.85180    0.78150    0.45910    1.000
    C464     C        0.75520    0.86970    0.46700    1.000
    H275     H        0.72550    0.89930    0.42660    1.000
    C465     C        0.75420    0.82320    0.14250    1.000
    H276     H        0.72660    0.85250    0.18170    1.000
    C466     C        0.84920    0.73440    0.13580    1.000
    H277     H        0.88140    0.70380    0.17360    1.000
    H278     H        0.87260    0.01730    0.03090    1.000
    C467     C        0.90170    0.73340    0.47250    1.000
    C468     C        0.80600    0.82360    0.47770    1.000
    C469     C        0.70580    0.91280    0.48930    1.000
    C470     C        0.70200    0.87150    0.13060    1.000
    C471     C        0.80020    0.77970    0.12420    1.000
    C472     C        0.89970    0.68940    0.11450    1.000
    C473     C        0.94750    0.68970    0.46120    1.000
    H279     H        0.89920    0.73560    0.49310    1.000
    H280     H        0.80750    0.82270    0.49750    1.000
    C474     C        0.65980    0.95790    0.47990    1.000
    H281     H        0.70760    0.90710    0.51260    1.000
    C475     C        0.68930    0.87450    0.11190    1.000
    H282     H        0.67610    0.90270    0.13780    1.000
    H283     H        0.79860    0.78040    0.10460    1.000
    H284     H        0.92830    0.65850    0.12720    1.000
    C476     C        0.90850    0.68780    0.08150    1.000
    H285     H        0.95250    0.68800    0.43840    1.000
    C477     C        0.99480    0.64050    0.47990    1.000
    H286     H        0.65820    0.96490    0.45550    1.000
    C478     C        0.60790    0.00080    0.50600    1.000
    H287     H        0.71120    0.84100    0.11040    1.000
    C479     C        0.64210    0.92740    0.09190    1.000
    C480     C        0.96070    0.64100    0.06140    1.000
    H288     H        0.88020    0.71810    0.06850    1.000
    O185     O        0.99060    0.64320    0.50780    1.000
    O186     O        0.03300    0.59720    0.46870    1.000
    O187     O        0.61330    0.99210    0.53510    1.000
    O188     O        0.56760    0.04000    0.49160    1.000
    O189     O        0.64330    0.92640    0.06480    1.000
    O190     O        0.60480    0.96740    0.10570    1.000
    O191     O        0.00100    0.60180    0.07580    1.000
    O192     O        0.96230    0.64760    0.02740    1.000
    Cu47     Cu       0.04443    0.57465    0.54410    1.000
    Cu48     Cu       0.09525    0.52548    0.49305    1.000
