# CIF file generated by openbabel 3.1.0, see https://openbabel.org
data_I
_chemical_name_common 'image0'
_cell_length_a 8.8649
_cell_length_b 10.5565
_cell_length_c 10.631
_cell_angle_alpha 99.986
_cell_angle_beta 110.233
_cell_angle_gamma 97.819
_space_group_name_H-M_alt 'P 1'
_space_group_name_Hall 'P 1'
loop_
    _symmetry_equiv_pos_as_xyz
    x,y,z
loop_
    _atom_site_label
    _atom_site_type_symbol
    _atom_site_fract_x
    _atom_site_fract_y
    _atom_site_fract_z
    _atom_site_occupancy
    Zn1      Zn       0.79770    0.32194    0.24878    1.000
    O1       O        0.80990    0.39510    0.45530    1.000
    O2       O        0.94710    0.56440    0.63780    1.000
    N1       N        0.18770    0.29320    0.82650    1.000
    N2       N        0.28630    0.18980    0.02680    1.000
    N3       N        0.54740    0.23690    0.17420    1.000
    N4       N        0.09330    0.05010    0.79760    1.000
    N5       N        0.99250    0.21970    0.93470    1.000
    C1       C        0.43730    0.26780    0.07030    1.000
    H1       H        0.46130    0.33630    0.03110    1.000
    C2       C        0.30170    0.10230    0.11190    1.000
    H2       H        0.21840    0.03630    0.10860    1.000
    C3       C        0.17490    0.42030    0.85100    1.000
    H3       H        0.11890    0.45390    0.90430    1.000
    C4       C        0.92960    0.48810    0.52690    1.000
    C5       C        0.98760    0.24630    0.06300    1.000
    H4       H        0.07260    0.24180    0.14230    1.000
    C6       C        0.19170    0.96260    0.80600    1.000
    H5       H        0.29670    0.97800    0.87360    1.000
    C7       C        0.75840    0.27490    0.92800    1.000
    H6       H        0.65400    0.29330    0.89580    1.000
    C8       C        0.46210    0.13140    0.20110    1.000
    H7       H        0.50710    0.08750    0.26920    1.000
    C9       C        0.84410    0.23950    0.84830    1.000
    H8       H        0.80960    0.23030    0.75350    1.000
    C10      C        0.31850    0.40570    0.72440    1.000
    H9       H        0.38020    0.42770    0.67330    1.000
    C11      C        0.28050    0.28390    0.74560    1.000
    H10      H        0.31130    0.20850    0.71190    1.000
    C12      C        0.97240    0.87050    0.63060    1.000
    H11      H        0.89620    0.81000    0.55240    1.000
    C13      C        0.95080    0.98930    0.68490    1.000
    H12      H        0.85730    0.02370    0.65230    1.000
    B1       B        0.13740    0.18780    0.89610    1.000
    N6       N        0.12410    0.85330    0.70880    1.000
    N7       N        0.84930    0.27930    0.06280    1.000
    N8       N        0.25030    0.49190    0.79140    1.000
    Zn2      Zn       0.20230    0.67806    0.75122    1.000
    O3       O        0.19010    0.60490    0.54470    1.000
    O4       O        0.05290    0.43560    0.36220    1.000
    N9       N        0.81230    0.70680    0.17350    1.000
    N10      N        0.71370    0.81020    0.97320    1.000
    N11      N        0.45260    0.76310    0.82580    1.000
    N12      N        0.90670    0.94990    0.20240    1.000
    N13      N        0.00750    0.78030    0.06530    1.000
    C14      C        0.56270    0.73220    0.92970    1.000
    H13      H        0.53870    0.66370    0.96890    1.000
    C15      C        0.69830    0.89770    0.88810    1.000
    H14      H        0.78160    0.96370    0.89140    1.000
    C16      C        0.82510    0.57970    0.14900    1.000
    H15      H        0.88110    0.54610    0.09570    1.000
    C17      C        0.07040    0.51190    0.47310    1.000
    C18      C        0.01240    0.75370    0.93700    1.000
    H16      H        0.92740    0.75820    0.85770    1.000
    C19      C        0.80830    0.03740    0.19400    1.000
    H17      H        0.70330    0.02200    0.12640    1.000
    C20      C        0.24160    0.72510    0.07200    1.000
    H18      H        0.34600    0.70670    0.10420    1.000
    C21      C        0.53790    0.86860    0.79890    1.000
    H19      H        0.49290    0.91250    0.73080    1.000
    C22      C        0.15590    0.76050    0.15170    1.000
    H20      H        0.19040    0.76970    0.24650    1.000
    C23      C        0.68150    0.59430    0.27560    1.000
    H21      H        0.61980    0.57230    0.32670    1.000
    C24      C        0.71950    0.71610    0.25440    1.000
    H22      H        0.68870    0.79150    0.28810    1.000
    C25      C        0.02760    0.12950    0.36940    1.000
    H23      H        0.10380    0.19000    0.44760    1.000
    C26      C        0.04920    0.01070    0.31510    1.000
    H24      H        0.14270    0.97630    0.34770    1.000
    B2       B        0.86260    0.81220    0.10390    1.000
    N14      N        0.87590    0.14670    0.29120    1.000
    N15      N        0.15070    0.72070    0.93720    1.000
    N16      N        0.74970    0.50810    0.20860    1.000
