# CIF file generated by openbabel 3.1.0, see https://openbabel.org
data_I
_chemical_name_common 'image0'
_cell_length_a 5.6339
_cell_length_b 15.9428
_cell_length_c 9.6183
_cell_angle_alpha 90
_cell_angle_beta 91.1156
_cell_angle_gamma 90
_space_group_name_H-M_alt 'P 1'
_space_group_name_Hall 'P 1'
loop_
    _symmetry_equiv_pos_as_xyz
    x,y,z
loop_
    _atom_site_label
    _atom_site_type_symbol
    _atom_site_fract_x
    _atom_site_fract_y
    _atom_site_fract_z
    _atom_site_occupancy
    Cd1      Cd       0.29808    0.33175    0.93741    1.000
    P1       P        0.30750    0.19603    0.65010    1.000
    O1       O        0.36380    0.22620    0.79730    1.000
    O2       O        0.49210    0.22440    0.54840    1.000
    O3       O        0.05620    0.21960    0.60740    1.000
    O4       O        0.31310    0.09630    0.65790    1.000
    H1       H        0.44800    0.07960    0.64340    1.000
    O5       O        0.57590    0.42880    0.86840    1.000
    O6       O        0.74570    0.54970    0.92800    1.000
    C1       C        0.59240    0.49390    0.94110    1.000
    Cd2      Cd       0.20192    0.83175    0.56259    1.000
    P2       P        0.19250    0.69603    0.84990    1.000
    O7       O        0.13620    0.72620    0.70270    1.000
    O8       O        0.00790    0.72440    0.95160    1.000
    O9       O        0.44380    0.71960    0.89260    1.000
    O10      O        0.18690    0.59630    0.84210    1.000
    H2       H        0.05200    0.57960    0.85660    1.000
    O11      O        0.92410    0.92880    0.63160    1.000
    O12      O        0.75430    0.04970    0.57200    1.000
    C2       C        0.90760    0.99390    0.55890    1.000
    Cd3      Cd       0.70192    0.66825    0.06259    1.000
    P3       P        0.69250    0.80397    0.34990    1.000
    O13      O        0.63620    0.77380    0.20270    1.000
    O14      O        0.50790    0.77560    0.45160    1.000
    O15      O        0.94380    0.78040    0.39260    1.000
    O16      O        0.68690    0.90370    0.34210    1.000
    H3       H        0.55200    0.92040    0.35660    1.000
    O17      O        0.42410    0.57120    0.13160    1.000
    O18      O        0.25430    0.45030    0.07200    1.000
    C3       C        0.40760    0.50610    0.05890    1.000
    Cd4      Cd       0.79808    0.16825    0.43741    1.000
    P4       P        0.80750    0.30397    0.15010    1.000
    O19      O        0.86380    0.27380    0.29730    1.000
    O20      O        0.99210    0.27560    0.04840    1.000
    O21      O        0.55620    0.28040    0.10740    1.000
    O22      O        0.81310    0.40370    0.15790    1.000
    H4       H        0.94800    0.42040    0.14340    1.000
    O23      O        0.07590    0.07120    0.36840    1.000
    O24      O        0.24570    0.95030    0.42800    1.000
    C4       C        0.09240    0.00610    0.44110    1.000
