# CIF file generated by openbabel 3.1.0, see https://openbabel.org
data_I
_chemical_name_common 'image0'
_cell_length_a 9.8054
_cell_length_b 17.9814
_cell_length_c 11.9775
_cell_angle_alpha 90
_cell_angle_beta 97.881
_cell_angle_gamma 90
_space_group_name_H-M_alt 'P 1'
_space_group_name_Hall 'P 1'
loop_
    _symmetry_equiv_pos_as_xyz
    x,y,z
loop_
    _atom_site_label
    _atom_site_type_symbol
    _atom_site_fract_x
    _atom_site_fract_y
    _atom_site_fract_z
    _atom_site_occupancy
    C1       C        0.32210    0.09120    0.18900    1.000
    C2       C        0.83630    0.13940    0.20490    1.000
    C3       C        0.57920    0.11570    0.20080    1.000
    H1       H        0.58900    0.06880    0.16610    1.000
    C4       C        0.44930    0.13820    0.22350    1.000
    C5       C        0.69600    0.16120    0.22840    1.000
    C6       C        0.43520    0.20590    0.27910    1.000
    H2       H        0.34820    0.22110    0.29760    1.000
    C7       C        0.67950    0.23050    0.28070    1.000
    H3       H        0.75570    0.26310    0.29790    1.000
    C8       C        0.55100    0.25020    0.30640    1.000
    C9       C        0.56300    0.33390    0.47460    1.000
    H4       H        0.59720    0.29770    0.52910    1.000
    C10      C        0.48850    0.38750    0.31570    1.000
    C11      C        0.44230    0.40730    0.19630    1.000
    C12      C        0.43940    0.36010    0.10500    1.000
    H5       H        0.47330    0.31070    0.11420    1.000
    C13      C        0.38540    0.38710    0.99910    1.000
    H6       H        0.38450    0.35640    0.93450    1.000
    C14      C        0.33390    0.45720    0.98820    1.000
    H7       H        0.29170    0.47490    0.91690    1.000
    C15      C        0.34400    0.50310    0.08310    1.000
    H8       H        0.31200    0.55290    0.07500    1.000
    N1       N        0.53470    0.32135    0.36210    1.000
    N2       N        0.53590    0.40396    0.49730    1.000
    N3       N        0.48890    0.43771    0.39560    1.000
    N4       N        0.39840    0.47820    0.18670    1.000
    O1       O        0.32930    0.03330    0.13220    1.000
    O2       O        0.20950    0.11575    0.21830    1.000
    O3       O        0.86020    0.07042    0.19220    1.000
    O4       O        0.92440    0.18940    0.19780    1.000
    Zn1      Zn       0.44553    0.54772    0.33909    1.000
    C16      C        0.17790    0.59120    0.31100    1.000
    C17      C        0.66370    0.63940    0.29510    1.000
    C18      C        0.92080    0.61570    0.29920    1.000
    H9       H        0.91100    0.56880    0.33390    1.000
    C19      C        0.05070    0.63820    0.27650    1.000
    C20      C        0.80400    0.66120    0.27160    1.000
    C21      C        0.06480    0.70590    0.22090    1.000
    H10      H        0.15180    0.72110    0.20240    1.000
    C22      C        0.82050    0.73050    0.21930    1.000
    H11      H        0.74430    0.76310    0.20210    1.000
    C23      C        0.94900    0.75020    0.19360    1.000
    C24      C        0.93700    0.83390    0.02540    1.000
    H12      H        0.90280    0.79770    0.97090    1.000
    C25      C        0.01150    0.88750    0.18430    1.000
    C26      C        0.05770    0.90730    0.30370    1.000
    C27      C        0.06060    0.86010    0.39500    1.000
    H13      H        0.02670    0.81070    0.38580    1.000
    C28      C        0.11460    0.88710    0.50090    1.000
    H14      H        0.11550    0.85640    0.56550    1.000
    C29      C        0.16610    0.95720    0.51180    1.000
    H15      H        0.20830    0.97490    0.58310    1.000
    C30      C        0.15600    0.00310    0.41690    1.000
    H16      H        0.18800    0.05290    0.42500    1.000
    N5       N        0.96530    0.82135    0.13790    1.000
    N6       N        0.96410    0.90396    0.00270    1.000
    N7       N        0.01110    0.93771    0.10440    1.000
    N8       N        0.10160    0.97820    0.31330    1.000
    O5       O        0.17070    0.53330    0.36780    1.000
    O6       O        0.29050    0.61575    0.28170    1.000
    O7       O        0.63980    0.57042    0.30780    1.000
    O8       O        0.57560    0.68940    0.30220    1.000
    Zn2      Zn       0.05447    0.04772    0.16091    1.000
    C31      C        0.67790    0.90880    0.81100    1.000
    C32      C        0.16370    0.86060    0.79510    1.000
    C33      C        0.42080    0.88430    0.79920    1.000
    H17      H        0.41100    0.93120    0.83390    1.000
    C34      C        0.55070    0.86180    0.77650    1.000
    C35      C        0.30400    0.83880    0.77160    1.000
    C36      C        0.56480    0.79410    0.72090    1.000
    H18      H        0.65180    0.77890    0.70240    1.000
    C37      C        0.32050    0.76950    0.71930    1.000
    H19      H        0.24430    0.73690    0.70210    1.000
    C38      C        0.44900    0.74980    0.69360    1.000
    C39      C        0.43700    0.66610    0.52540    1.000
    H20      H        0.40280    0.70230    0.47090    1.000
    C40      C        0.51150    0.61250    0.68430    1.000
    C41      C        0.55770    0.59270    0.80370    1.000
    C42      C        0.56060    0.63990    0.89500    1.000
    H21      H        0.52670    0.68930    0.88580    1.000
    C43      C        0.61460    0.61290    0.00090    1.000
    H22      H        0.61550    0.64360    0.06550    1.000
    C44      C        0.66610    0.54280    0.01180    1.000
    H23      H        0.70830    0.52510    0.08310    1.000
    C45      C        0.65600    0.49690    0.91690    1.000
    H24      H        0.68800    0.44710    0.92500    1.000
    N9       N        0.46530    0.67865    0.63790    1.000
    N10      N        0.46410    0.59604    0.50270    1.000
    N11      N        0.51110    0.56229    0.60440    1.000
    N12      N        0.60160    0.52180    0.81330    1.000
    O9       O        0.67070    0.96670    0.86780    1.000
    O10      O        0.79050    0.88425    0.78170    1.000
    O11      O        0.13980    0.92958    0.80780    1.000
    O12      O        0.07560    0.81060    0.80220    1.000
    Zn3      Zn       0.55447    0.45228    0.66091    1.000
    C46      C        0.82210    0.40880    0.68900    1.000
    C47      C        0.33630    0.36060    0.70490    1.000
    C48      C        0.07920    0.38430    0.70080    1.000
    H25      H        0.08900    0.43120    0.66610    1.000
    C49      C        0.94930    0.36180    0.72350    1.000
    C50      C        0.19600    0.33880    0.72840    1.000
    C51      C        0.93520    0.29410    0.77910    1.000
    H26      H        0.84820    0.27890    0.79760    1.000
    C52      C        0.17950    0.26950    0.78070    1.000
    H27      H        0.25570    0.23690    0.79790    1.000
    C53      C        0.05100    0.24980    0.80640    1.000
    C54      C        0.06300    0.16610    0.97460    1.000
    H28      H        0.09720    0.20230    0.02910    1.000
    C55      C        0.98850    0.11250    0.81570    1.000
    C56      C        0.94230    0.09270    0.69630    1.000
    C57      C        0.93940    0.13990    0.60500    1.000
    H29      H        0.97330    0.18930    0.61420    1.000
    C58      C        0.88540    0.11290    0.49910    1.000
    H30      H        0.88450    0.14360    0.43450    1.000
    C59      C        0.83390    0.04280    0.48820    1.000
    H31      H        0.79170    0.02510    0.41690    1.000
    C60      C        0.84400    0.99690    0.58310    1.000
    H32      H        0.81200    0.94710    0.57500    1.000
    N13      N        0.03470    0.17865    0.86210    1.000
    N14      N        0.03590    0.09604    0.99730    1.000
    N15      N        0.98890    0.06229    0.89560    1.000
    N16      N        0.89840    0.02180    0.68670    1.000
    O13      O        0.82930    0.46670    0.63220    1.000
    O14      O        0.70950    0.38425    0.71830    1.000
    O15      O        0.36020    0.42958    0.69220    1.000
    O16      O        0.42440    0.31060    0.69780    1.000
    Zn4      Zn       0.94553    0.95228    0.83909    1.000
