# CIF file generated by openbabel 3.1.0, see https://openbabel.org
data_I
_chemical_name_common 'image0'
_cell_length_a 24.272
_cell_length_b 24.272
_cell_length_c 4.937
_cell_angle_alpha 90
_cell_angle_beta 90
_cell_angle_gamma 90
_space_group_name_H-M_alt 'P 1'
_space_group_name_Hall 'P 1'
loop_
    _symmetry_equiv_pos_as_xyz
    x,y,z
loop_
    _atom_site_label
    _atom_site_type_symbol
    _atom_site_fract_x
    _atom_site_fract_y
    _atom_site_fract_z
    _atom_site_occupancy
    N1       N        0.92970    0.47100    0.51780    1.000
    C1       C        0.85530    0.46530    0.88190    1.000
    C2       C        0.83560    0.51330    0.97600    1.000
    C3       C        0.79230    0.51340    0.17000    1.000
    C4       C        0.77180    0.46450    0.27320    1.000
    C5       C        0.79590    0.41470    0.16600    1.000
    C6       C        0.83470    0.41570    0.98500    1.000
    C7       C        0.89660    0.46820    0.67670    1.000
    H1       H        0.85020    0.54650    0.91500    1.000
    H2       H        0.77750    0.54670    0.22800    1.000
    H3       H        0.78310    0.38080    0.22800    1.000
    H4       H        0.84920    0.38250    0.92200    1.000
    N2       N        0.42970    0.97100    0.01780    1.000
    C8       C        0.35530    0.96530    0.38190    1.000
    C9       C        0.33560    0.01330    0.47600    1.000
    C10      C        0.29230    0.01340    0.67000    1.000
    C11      C        0.27180    0.96450    0.77320    1.000
    C12      C        0.29590    0.91470    0.66600    1.000
    C13      C        0.33470    0.91570    0.48500    1.000
    C14      C        0.39660    0.96820    0.17670    1.000
    H5       H        0.35020    0.04650    0.41500    1.000
    H6       H        0.27750    0.04670    0.72800    1.000
    H7       H        0.28310    0.88080    0.72800    1.000
    H8       H        0.34920    0.88250    0.42200    1.000
    N3       N        0.07030    0.52900    0.51780    1.000
    C15      C        0.14470    0.53470    0.88190    1.000
    C16      C        0.16440    0.48670    0.97600    1.000
    C17      C        0.20770    0.48660    0.17000    1.000
    C18      C        0.22820    0.53550    0.27320    1.000
    C19      C        0.20410    0.58530    0.16600    1.000
    C20      C        0.16530    0.58430    0.98500    1.000
    C21      C        0.10340    0.53180    0.67670    1.000
    H9       H        0.14980    0.45350    0.91500    1.000
    H10      H        0.22250    0.45330    0.22800    1.000
    H11      H        0.21690    0.61920    0.22800    1.000
    H12      H        0.15080    0.61750    0.92200    1.000
    N4       N        0.57030    0.02900    0.01780    1.000
    C22      C        0.64470    0.03470    0.38190    1.000
    C23      C        0.66440    0.98670    0.47600    1.000
    C24      C        0.70770    0.98660    0.67000    1.000
    C25      C        0.72820    0.03550    0.77320    1.000
    C26      C        0.70410    0.08530    0.66600    1.000
    C27      C        0.66530    0.08430    0.48500    1.000
    C28      C        0.60340    0.03180    0.17670    1.000
    H13      H        0.64980    0.95350    0.41500    1.000
    H14      H        0.72250    0.95330    0.72800    1.000
    H15      H        0.71690    0.11920    0.72800    1.000
    H16      H        0.65080    0.11750    0.42200    1.000
    N5       N        0.47100    0.07030    0.48220    1.000
    C29      C        0.46530    0.14470    0.11810    1.000
    C30      C        0.51330    0.16440    0.02400    1.000
    C31      C        0.51340    0.20770    0.83000    1.000
    C32      C        0.46450    0.22820    0.72680    1.000
    C33      C        0.41470    0.20410    0.83400    1.000
    C34      C        0.41570    0.16530    0.01500    1.000
    C35      C        0.46820    0.10340    0.32330    1.000
    H17      H        0.54650    0.14980    0.08500    1.000
    H18      H        0.54670    0.22250    0.77200    1.000
    H19      H        0.38080    0.21690    0.77200    1.000
    H20      H        0.38250    0.15080    0.07800    1.000
    N6       N        0.97100    0.57030    0.98220    1.000
    C36      C        0.96530    0.64470    0.61810    1.000
    C37      C        0.01330    0.66440    0.52400    1.000
    C38      C        0.01340    0.70770    0.33000    1.000
    C39      C        0.96450    0.72820    0.22680    1.000
    C40      C        0.91470    0.70410    0.33400    1.000
    C41      C        0.91570    0.66530    0.51500    1.000
    C42      C        0.96820    0.60340    0.82330    1.000
    H21      H        0.04650    0.64980    0.58500    1.000
    H22      H        0.04670    0.72250    0.27200    1.000
    H23      H        0.88080    0.71690    0.27200    1.000
    H24      H        0.88250    0.65080    0.57800    1.000
    N7       N        0.52900    0.92970    0.48220    1.000
    C43      C        0.53470    0.85530    0.11810    1.000
    C44      C        0.48670    0.83560    0.02400    1.000
    C45      C        0.48660    0.79230    0.83000    1.000
    C46      C        0.53550    0.77180    0.72680    1.000
    C47      C        0.58530    0.79590    0.83400    1.000
    C48      C        0.58430    0.83470    0.01500    1.000
    C49      C        0.53180    0.89660    0.32330    1.000
    H25      H        0.45350    0.85020    0.08500    1.000
    H26      H        0.45330    0.77750    0.77200    1.000
    H27      H        0.61920    0.78310    0.77200    1.000
    H28      H        0.61750    0.84920    0.07800    1.000
    N8       N        0.02900    0.42970    0.98220    1.000
    C50      C        0.03470    0.35530    0.61810    1.000
    C51      C        0.98670    0.33560    0.52400    1.000
    C52      C        0.98660    0.29230    0.33000    1.000
    C53      C        0.03550    0.27180    0.22680    1.000
    C54      C        0.08530    0.29590    0.33400    1.000
    C55      C        0.08430    0.33470    0.51500    1.000
    C56      C        0.03180    0.39660    0.82330    1.000
    H29      H        0.95350    0.35020    0.58500    1.000
    H30      H        0.95330    0.27750    0.27200    1.000
    H31      H        0.11920    0.28310    0.27200    1.000
    H32      H        0.11750    0.34920    0.57800    1.000
    N9       N        0.57030    0.47100    0.23220    1.000
    C57      C        0.64470    0.46530    0.86810    1.000
    C58      C        0.66440    0.51330    0.77400    1.000
    C59      C        0.70770    0.51340    0.58000    1.000
    C60      C        0.72820    0.46450    0.47680    1.000
    C61      C        0.70410    0.41470    0.58400    1.000
    C62      C        0.66530    0.41570    0.76500    1.000
    C63      C        0.60340    0.46820    0.07330    1.000
    H33      H        0.64980    0.54650    0.83500    1.000
    H34      H        0.72250    0.54670    0.52200    1.000
    H35      H        0.71690    0.38080    0.52200    1.000
    H36      H        0.65080    0.38250    0.82800    1.000
    N10      N        0.07030    0.97100    0.73220    1.000
    C64      C        0.14470    0.96530    0.36810    1.000
    C65      C        0.16440    0.01330    0.27400    1.000
    C66      C        0.20770    0.01340    0.08000    1.000
    C67      C        0.22820    0.96450    0.97680    1.000
    C68      C        0.20410    0.91470    0.08400    1.000
    C69      C        0.16530    0.91570    0.26500    1.000
    C70      C        0.10340    0.96820    0.57330    1.000
    H37      H        0.14980    0.04650    0.33500    1.000
    H38      H        0.22250    0.04670    0.02200    1.000
    H39      H        0.21690    0.88080    0.02200    1.000
    H40      H        0.15080    0.88250    0.32800    1.000
    N11      N        0.42970    0.52900    0.23220    1.000
    C71      C        0.35530    0.53470    0.86810    1.000
    C72      C        0.33560    0.48670    0.77400    1.000
    C73      C        0.29230    0.48660    0.58000    1.000
    C74      C        0.27180    0.53550    0.47680    1.000
    C75      C        0.29590    0.58530    0.58400    1.000
    C76      C        0.33470    0.58430    0.76500    1.000
    C77      C        0.39660    0.53180    0.07330    1.000
    H41      H        0.35020    0.45350    0.83500    1.000
    H42      H        0.27750    0.45330    0.52200    1.000
    H43      H        0.28310    0.61920    0.52200    1.000
    H44      H        0.34920    0.61750    0.82800    1.000
    N12      N        0.92970    0.02900    0.73220    1.000
    C78      C        0.85530    0.03470    0.36810    1.000
    C79      C        0.83560    0.98670    0.27400    1.000
    C80      C        0.79230    0.98660    0.08000    1.000
    C81      C        0.77180    0.03550    0.97680    1.000
    C82      C        0.79590    0.08530    0.08400    1.000
    C83      C        0.83470    0.08430    0.26500    1.000
    C84      C        0.89660    0.03180    0.57330    1.000
    H45      H        0.85020    0.95350    0.33500    1.000
    H46      H        0.77750    0.95330    0.02200    1.000
    H47      H        0.78310    0.11920    0.02200    1.000
    H48      H        0.84920    0.11750    0.32800    1.000
    N13      N        0.02900    0.07030    0.26780    1.000
    C85      C        0.03470    0.14470    0.63190    1.000
    C86      C        0.98670    0.16440    0.72600    1.000
    C87      C        0.98660    0.20770    0.92000    1.000
    C88      C        0.03550    0.22820    0.02320    1.000
    C89      C        0.08530    0.20410    0.91600    1.000
    C90      C        0.08430    0.16530    0.73500    1.000
    C91      C        0.03180    0.10340    0.42670    1.000
    H49      H        0.95350    0.14980    0.66500    1.000
    H50      H        0.95330    0.22250    0.97800    1.000
    H51      H        0.11920    0.21690    0.97800    1.000
    H52      H        0.11750    0.15080    0.67200    1.000
    N14      N        0.52900    0.57030    0.76780    1.000
    C92      C        0.53470    0.64470    0.13190    1.000
    C93      C        0.48670    0.66440    0.22600    1.000
    C94      C        0.48660    0.70770    0.42000    1.000
    C95      C        0.53550    0.72820    0.52320    1.000
    C96      C        0.58530    0.70410    0.41600    1.000
    C97      C        0.58430    0.66530    0.23500    1.000
    C98      C        0.53180    0.60340    0.92670    1.000
    H53      H        0.45350    0.64980    0.16500    1.000
    H54      H        0.45330    0.72250    0.47800    1.000
    H55      H        0.61920    0.71690    0.47800    1.000
    H56      H        0.61750    0.65080    0.17200    1.000
    N15      N        0.97100    0.92970    0.26780    1.000
    C99      C        0.96530    0.85530    0.63190    1.000
    C100     C        0.01330    0.83560    0.72600    1.000
    C101     C        0.01340    0.79230    0.92000    1.000
    C102     C        0.96450    0.77180    0.02320    1.000
    C103     C        0.91470    0.79590    0.91600    1.000
    C104     C        0.91570    0.83470    0.73500    1.000
    C105     C        0.96820    0.89660    0.42670    1.000
    H57      H        0.04650    0.85020    0.66500    1.000
    H58      H        0.04670    0.77750    0.97800    1.000
    H59      H        0.88080    0.78310    0.97800    1.000
    H60      H        0.88250    0.84920    0.67200    1.000
    N16      N        0.47100    0.42970    0.76780    1.000
    C106     C        0.46530    0.35530    0.13190    1.000
    C107     C        0.51330    0.33560    0.22600    1.000
    C108     C        0.51340    0.29230    0.42000    1.000
    C109     C        0.46450    0.27180    0.52320    1.000
    C110     C        0.41470    0.29590    0.41600    1.000
    C111     C        0.41570    0.33470    0.23500    1.000
    C112     C        0.46820    0.39660    0.92670    1.000
    H61      H        0.54650    0.35020    0.16500    1.000
    H62      H        0.54670    0.27750    0.47800    1.000
    H63      H        0.38080    0.28310    0.47800    1.000
    H64      H        0.38250    0.34920    0.17200    1.000
    Ag1      Ag       0.00000    0.50000    0.25000    1.000
    Ag2      Ag       0.50000    0.00000    0.75000    1.000
    Ag3      Ag       0.50000    0.50000    0.50000    1.000
    Ag4      Ag       0.00000    0.00000    0.00000    1.000
