# CIF file generated by openbabel 3.1.0, see https://openbabel.org
data_I
_chemical_name_common 'RUVKOJ_clean'
_cell_length_a 8.8764
_cell_length_b 9.1908
_cell_length_c 15.82
_cell_angle_alpha 90
_cell_angle_beta 90
_cell_angle_gamma 90
_space_group_name_H-M_alt 'P 1'
_space_group_name_Hall 'P 1'
loop_
    _symmetry_equiv_pos_as_xyz
    x,y,z
loop_
    _atom_site_label
    _atom_site_type_symbol
    _atom_site_fract_x
    _atom_site_fract_y
    _atom_site_fract_z
    _atom_site_occupancy
    Eu1      Eu       0.00000    0.72847    0.81552    1.000
    Eu2      Eu       0.00000    0.27153    0.18448    1.000
    Eu3      Eu       0.50000    0.77153    0.31552    1.000
    Eu4      Eu       0.50000    0.22847    0.68448    1.000
    H1       H        0.64830    0.38910    0.93730    1.000
    H2       H        0.64830    0.61090    0.06270    1.000
    H3       H        0.85170    0.11090    0.43730    1.000
    H4       H        0.85170    0.88910    0.56270    1.000
    H5       H        0.35170    0.61090    0.06270    1.000
    H6       H        0.35170    0.38910    0.93730    1.000
    H7       H        0.14830    0.88910    0.56270    1.000
    H8       H        0.14830    0.11090    0.43730    1.000
    H9       H        0.50000    0.66430    0.92190    1.000
    H10      H        0.50000    0.33570    0.07810    1.000
    H11      H        0.00000    0.83570    0.42190    1.000
    H12      H        0.00000    0.16430    0.57810    1.000
    C1       C        0.77830    0.56890    0.91160    1.000
    C2       C        0.64410    0.49270    0.95180    1.000
    C3       C        0.77830    0.43110    0.08840    1.000
    C4       C        0.64410    0.50730    0.04820    1.000
    C5       C        0.72170    0.93110    0.41160    1.000
    C6       C        0.85590    0.00730    0.45180    1.000
    C7       C        0.72170    0.06890    0.58840    1.000
    C8       C        0.85590    0.99270    0.54820    1.000
    C9       C        0.22170    0.43110    0.08840    1.000
    C10      C        0.35590    0.50730    0.04820    1.000
    C11      C        0.22170    0.56890    0.91160    1.000
    C12      C        0.35590    0.49270    0.95180    1.000
    C13      C        0.27830    0.06890    0.58840    1.000
    C14      C        0.14410    0.99270    0.54820    1.000
    C15      C        0.27830    0.93110    0.41160    1.000
    C16      C        0.14410    0.00730    0.45180    1.000
    C17      C        0.50000    0.55880    0.91280    1.000
    C18      C        0.50000    0.52860    0.82060    1.000
    C19      C        0.50000    0.44120    0.08720    1.000
    C20      C        0.50000    0.47140    0.17940    1.000
    C21      C        0.00000    0.94120    0.41280    1.000
    C22      C        0.00000    0.97140    0.32060    1.000
    C23      C        0.00000    0.05880    0.58720    1.000
    C24      C        0.00000    0.02860    0.67940    1.000
    O1       O        0.83450    0.68340    0.94330    1.000
    O2       O        0.82800    0.52190    0.84120    1.000
    O3       O        0.83450    0.31660    0.05670    1.000
    O4       O        0.82800    0.47810    0.15880    1.000
    O5       O        0.66550    0.81660    0.44330    1.000
    O6       O        0.67200    0.97810    0.34120    1.000
    O7       O        0.66550    0.18340    0.55670    1.000
    O8       O        0.67200    0.02190    0.65880    1.000
    O9       O        0.16550    0.31660    0.05670    1.000
    O10      O        0.17200    0.47810    0.15880    1.000
    O11      O        0.16550    0.68340    0.94330    1.000
    O12      O        0.17200    0.52190    0.84120    1.000
    O13      O        0.33450    0.18340    0.55670    1.000
    O14      O        0.32800    0.02190    0.65880    1.000
    O15      O        0.33450    0.81660    0.44330    1.000
    O16      O        0.32800    0.97810    0.34120    1.000
    O17      O        0.50000    0.39430    0.79780    1.000
    O18      O        0.50000    0.63280    0.76710    1.000
    O19      O        0.50000    0.60570    0.20220    1.000
    O20      O        0.50000    0.36720    0.23290    1.000
    O21      O        0.00000    0.10570    0.29780    1.000
    O22      O        0.00000    0.86720    0.26710    1.000
    O23      O        0.00000    0.89430    0.70220    1.000
    O24      O        0.00000    0.13280    0.73290    1.000
