# CIF file generated by openbabel 3.1.0, see https://openbabel.org
data_I
_chemical_name_common 'LENRUS_clean'
_cell_length_a 7.0373
_cell_length_b 10.4399
_cell_length_c 13.3105
_cell_angle_alpha 90
_cell_angle_beta 90
_cell_angle_gamma 90
_space_group_name_H-M_alt 'P 1'
_space_group_name_Hall 'P 1'
loop_
    _symmetry_equiv_pos_as_xyz
    x,y,z
loop_
    _atom_site_label
    _atom_site_type_symbol
    _atom_site_fract_x
    _atom_site_fract_y
    _atom_site_fract_z
    _atom_site_occupancy
    Ag1      Ag       0.78115    0.89395    0.31970    1.000
    Ag2      Ag       0.71885    0.10605    0.81970    1.000
    H1       H        0.95790    0.42300    0.35970    1.000
    H2       H        0.82390    0.66040    0.68910    1.000
    H3       H        0.81730    0.81020    0.81370    1.000
    H4       H        0.95690    0.08070    0.62790    1.000
    H5       H        0.97610    0.93930    0.49670    1.000
    H6       H        0.54210    0.57700    0.85970    1.000
    H7       H        0.67610    0.33960    0.18910    1.000
    H8       H        0.68270    0.18980    0.31370    1.000
    H9       H        0.54310    0.91930    0.12790    1.000
    H10      H        0.52390    0.06070    0.99670    1.000
    C1       C        0.88660    0.62140    0.22580    1.000
    C2       C        0.90250    0.61050    0.33880    1.000
    C3       C        0.93930    0.50260    0.38950    1.000
    C4       C        0.90140    0.69030    0.49370    1.000
    C5       C        0.89450    0.78320    0.57680    1.000
    C6       C        0.85000    0.74570    0.67450    1.000
    C7       C        0.84550    0.83670    0.74870    1.000
    C8       C        0.92830    0.99510    0.63990    1.000
    C9       C        0.93950    0.91110    0.56000    1.000
    C10      C        0.61340    0.37860    0.72580    1.000
    C11      C        0.59750    0.38950    0.83880    1.000
    C12      C        0.56070    0.49740    0.88950    1.000
    C13      C        0.59860    0.30970    0.99370    1.000
    C14      C        0.60550    0.21680    0.07680    1.000
    C15      C        0.65000    0.25430    0.17450    1.000
    C16      C        0.65450    0.16330    0.24870    1.000
    C17      C        0.57170    0.00490    0.13990    1.000
    C18      C        0.56050    0.08890    0.06000    1.000
    S1       S        0.94758    0.53002    0.51592    1.000
    S2       S        0.55242    0.46998    0.01592    1.000
    N1       N        0.87930    0.71810    0.39870    1.000
    N2       N        0.87930    0.96180    0.73340    1.000
    N3       N        0.62070    0.28190    0.89870    1.000
    N4       N        0.62070    0.03820    0.23340    1.000
    O1       O        0.84330    0.72730    0.19020    1.000
    O2       O        0.91990    0.52020    0.17720    1.000
    O3       O        0.65670    0.27270    0.69020    1.000
    O4       O        0.58010    0.47980    0.67720    1.000
    Ag3      Ag       0.21885    0.39395    0.18030    1.000
    Ag4      Ag       0.28115    0.60605    0.68030    1.000
    H11      H        0.04210    0.92300    0.14030    1.000
    H12      H        0.17610    0.16040    0.81090    1.000
    H13      H        0.18270    0.31020    0.68630    1.000
    H14      H        0.04310    0.58070    0.87210    1.000
    H15      H        0.02390    0.43930    0.00330    1.000
    H16      H        0.45790    0.07700    0.64030    1.000
    H17      H        0.32390    0.83960    0.31090    1.000
    H18      H        0.31730    0.68980    0.18630    1.000
    H19      H        0.45690    0.41930    0.37210    1.000
    H20      H        0.47610    0.56070    0.50330    1.000
    C19      C        0.11340    0.12140    0.27420    1.000
    C20      C        0.09750    0.11050    0.16120    1.000
    C21      C        0.06070    0.00260    0.11050    1.000
    C22      C        0.09860    0.19030    0.00630    1.000
    C23      C        0.10550    0.28320    0.92320    1.000
    C24      C        0.15000    0.24570    0.82550    1.000
    C25      C        0.15450    0.33670    0.75130    1.000
    C26      C        0.07170    0.49510    0.86010    1.000
    C27      C        0.06050    0.41110    0.94000    1.000
    C28      C        0.38660    0.87860    0.77420    1.000
    C29      C        0.40250    0.88950    0.66120    1.000
    C30      C        0.43930    0.99740    0.61050    1.000
    C31      C        0.40140    0.80970    0.50630    1.000
    C32      C        0.39450    0.71680    0.42320    1.000
    C33      C        0.35000    0.75430    0.32550    1.000
    C34      C        0.34550    0.66330    0.25130    1.000
    C35      C        0.42830    0.50490    0.36010    1.000
    C36      C        0.43950    0.58890    0.44000    1.000
    S3       S        0.05242    0.03002    0.98408    1.000
    S4       S        0.44758    0.96998    0.48408    1.000
    N5       N        0.12070    0.21810    0.10130    1.000
    N6       N        0.12070    0.46180    0.76660    1.000
    N7       N        0.37930    0.78190    0.60130    1.000
    N8       N        0.37930    0.53820    0.26660    1.000
    O5       O        0.15670    0.22730    0.30980    1.000
    O6       O        0.08010    0.02020    0.32280    1.000
    O7       O        0.34330    0.77270    0.80980    1.000
    O8       O        0.41990    0.97980    0.82280    1.000
