# CIF file generated by openbabel 3.1.0, see https://openbabel.org
data_I
_chemical_name_common 'SETQOZ_SL'
_cell_length_a 6.9035
_cell_length_b 15.9959
_cell_length_c 14.3406
_cell_angle_alpha 90
_cell_angle_beta 90
_cell_angle_gamma 90
_space_group_name_H-M_alt 'P 1'
_space_group_name_Hall 'P 1'
loop_
    _symmetry_equiv_pos_as_xyz
    x,y,z
loop_
    _atom_site_label
    _atom_site_type_symbol
    _atom_site_fract_x
    _atom_site_fract_y
    _atom_site_fract_z
    _atom_site_occupancy
    H1       H        0.70334    0.55495    0.55515    1.000
    C2       C        0.82627    0.53218    0.53229    1.000
    O3       O        0.84082    0.66219    0.66276    1.000
    H4       H        0.20334    0.05495    0.05515    1.000
    C5       C        0.32627    0.03218    0.03229    1.000
    O6       O        0.34082    0.16219    0.16276    1.000
    H7       H        0.29666    0.94505    0.55515    1.000
    C8       C        0.17373    0.96782    0.53229    1.000
    O9       O        0.15918    0.83781    0.66276    1.000
    H10      H        0.79666    0.44505    0.05515    1.000
    C11      C        0.67373    0.46782    0.03229    1.000
    O12      O        0.65918    0.33781    0.16276    1.000
    H13      H        0.29666    0.05495    0.44485    1.000
    C14      C        0.17373    0.03218    0.46771    1.000
    O15      O        0.15918    0.16219    0.33724    1.000
    H16      H        0.79666    0.55495    0.94485    1.000
    C17      C        0.67373    0.53218    0.96771    1.000
    O18      O        0.65918    0.66219    0.83724    1.000
    H19      H        0.70334    0.44505    0.44485    1.000
    C20      C        0.82627    0.46782    0.46771    1.000
    O21      O        0.84082    0.33781    0.33724    1.000
    H22      H        0.20334    0.94505    0.94485    1.000
    C23      C        0.32627    0.96782    0.96771    1.000
    O24      O        0.34082    0.83781    0.83724    1.000
    H25      H        0.29666    0.44505    0.44485    1.000
    C26      C        0.17373    0.46782    0.46771    1.000
    O27      O        0.15918    0.33781    0.33724    1.000
    H28      H        0.79666    0.94505    0.94485    1.000
    C29      C        0.67373    0.96782    0.96771    1.000
    O30      O        0.65918    0.83781    0.83724    1.000
    H31      H        0.70334    0.05495    0.44485    1.000
    C32      C        0.82627    0.03218    0.46771    1.000
    O33      O        0.84082    0.16219    0.33724    1.000
    H34      H        0.20334    0.55495    0.94485    1.000
    C35      C        0.32627    0.53218    0.96771    1.000
    O36      O        0.34082    0.66219    0.83724    1.000
    H37      H        0.70334    0.94505    0.55515    1.000
    C38      C        0.82627    0.96782    0.53229    1.000
    O39      O        0.84082    0.83781    0.66276    1.000
    H40      H        0.20334    0.44505    0.05515    1.000
    C41      C        0.32627    0.46782    0.03229    1.000
    O42      O        0.34082    0.33781    0.16276    1.000
    H43      H        0.29666    0.55495    0.55515    1.000
    C44      C        0.17373    0.53218    0.53229    1.000
    O45      O        0.15918    0.66219    0.66276    1.000
    H46      H        0.79666    0.05495    0.05515    1.000
    C47      C        0.67373    0.03218    0.03229    1.000
    O48      O        0.65918    0.16219    0.16276    1.000
    H49      H        0.50000    0.25000    0.38215    1.000
    H50      H        0.00000    0.75000    0.88215    1.000
    H51      H        0.50000    0.75000    0.61785    1.000
    H52      H        0.00000    0.25000    0.11785    1.000
    Fe53     Fe       0.75000    0.25000    0.25000    1.000
    Fe54     Fe       0.25000    0.25000    0.25000    1.000
    Fe55     Fe       0.25000    0.75000    0.75000    1.000
    Fe56     Fe       0.75000    0.75000    0.75000    1.000
    C57      C        0.00000    0.56436    0.56459    1.000
    C58      C        0.00000    0.63268    0.63314    1.000
    C59      C        0.50000    0.06436    0.06459    1.000
    C60      C        0.50000    0.13268    0.13314    1.000
    C61      C        0.00000    0.93564    0.56459    1.000
    C62      C        0.00000    0.86732    0.63314    1.000
    C63      C        0.50000    0.43564    0.06459    1.000
    C64      C        0.50000    0.36732    0.13314    1.000
    C65      C        0.00000    0.06436    0.43541    1.000
    C66      C        0.00000    0.13268    0.36686    1.000
    C67      C        0.50000    0.56436    0.93541    1.000
    C68      C        0.50000    0.63268    0.86686    1.000
    C69      C        0.00000    0.43564    0.43541    1.000
    C70      C        0.00000    0.36732    0.36686    1.000
    C71      C        0.50000    0.93564    0.93541    1.000
    C72      C        0.50000    0.86732    0.86686    1.000
    O73      O        0.50000    0.75000    0.68758    1.000
    O74      O        0.00000    0.25000    0.18758    1.000
    O75      O        0.50000    0.25000    0.31242    1.000
    O76      O        0.00000    0.75000    0.81242    1.000
