# CIF file generated by openbabel 3.1.0, see https://openbabel.org
data_I
_chemical_name_common 'image0'
_cell_length_a 19.0153
_cell_length_b 17.3146
_cell_length_c 14.7729
_cell_angle_alpha 110.339
_cell_angle_beta 114.077
_cell_angle_gamma 60.3142
_space_group_name_H-M_alt 'P 1'
_space_group_name_Hall 'P 1'
loop_
    _symmetry_equiv_pos_as_xyz
    x,y,z
loop_
    _atom_site_label
    _atom_site_type_symbol
    _atom_site_fract_x
    _atom_site_fract_y
    _atom_site_fract_z
    _atom_site_occupancy
    C1       C        0.68236    0.01138    0.38990    1.000
    C2       C        0.80678    0.82522    0.45743    1.000
    C3       C        0.74859    0.83736    0.36038    1.000
    H1       H        0.74719    0.77727    0.30517    1.000
    C4       C        0.69080    0.92419    0.32921    1.000
    H2       H        0.65057    0.92176    0.25234    1.000
    C5       C        0.78465    0.25586    0.31805    1.000
    H3       H        0.80960    0.18392    0.31445    1.000
    C6       C        0.84208    0.29930    0.36725    1.000
    H4       H        0.90849    0.25758    0.39579    1.000
    C7       C        0.28476    0.25689    0.24230    1.000
    C8       C        0.27943    0.23572    0.32217    1.000
    H5       H        0.33005    0.17646    0.35244    1.000
    C9       C        0.21603    0.29200    0.37202    1.000
    H6       H        0.21857    0.27143    0.43490    1.000
    C10      C        0.15371    0.37569    0.34756    1.000
    C11      C        0.15684    0.39678    0.26612    1.000
    H7       H        0.11136    0.46115    0.24366    1.000
    C12      C        0.22052    0.33986    0.21597    1.000
    H8       H        0.22359    0.36519    0.16102    1.000
    C13      C        0.74075    0.99988    0.48789    1.000
    H9       H        0.74227    0.06011    0.54275    1.000
    C14      C        0.79923    0.91210    0.51935    1.000
    H10      H        0.84030    0.91305    0.59591    1.000
    C15      C        0.69669    0.30393    0.28016    1.000
    C16      C        0.81631    0.39380    0.38350    1.000
    C17      C        0.72911    0.44072    0.34442    1.000
    H11      H        0.70329    0.51344    0.35361    1.000
    C18      C        0.67236    0.39781    0.29618    1.000
    H12      H        0.60573    0.44101    0.27262    1.000
    C19      C        0.30738    0.40028    0.02639    1.000
    C20      C        0.31640    0.37107    0.92707    1.000
    H13      H        0.37699    0.32020    0.91727    1.000
    C21      C        0.25157    0.40238    0.83646    1.000
    H14      H        0.26833    0.37336    0.76660    1.000
    C22      C        0.16782    0.46741    0.83235    1.000
    C23      C        0.15759    0.49775    0.93143    1.000
    H15      H        0.09603    0.54770    0.93911    1.000
    C24      C        0.22320    0.46620    0.02315    1.000
    H16      H        0.20622    0.49390    0.09282    1.000
    C25      C        0.98039    0.54037    0.52939    1.000
    C26      C        0.87606    0.44314    0.44025    1.000
    C27      C        0.92073    0.48866    0.48679    1.000
    C28      C        0.04117    0.52410    0.64474    1.000
    C29      C        0.09677    0.49992    0.72991    1.000
    C30      C        0.09044    0.43966    0.40795    1.000
    C31      C        0.04101    0.49127    0.46145    1.000
    C32      C        0.87066    0.72744    0.48996    1.000
    C33      C        0.92146    0.64680    0.51333    1.000
    O1       O        0.39541    0.36914    0.22242    1.000
    O2       O        0.44909    0.28181    0.08950    1.000
    C34      C        0.38546    0.35145    0.11950    1.000
    O3       O        0.56749    0.32808    0.29675    1.000
    O4       O        0.61694    0.19306    0.19082    1.000
    C35      C        0.62583    0.27021    0.25224    1.000
    Cu1      Cu       0.49337    0.29358    0.31924    1.000
    Cu2      Cu       0.51247    0.17680    0.15602    1.000
    O5       O        0.59344    0.19495    0.38614    1.000
    O6       O        0.57273    0.08846    0.24577    1.000
    O7       O        0.42320    0.24149    0.31926    1.000
    O8       O        0.40345    0.18471    0.14998    1.000
    C36      C        0.61394    0.10414    0.34240    1.000
    C37      C        0.37359    0.22273    0.23259    1.000
