# CIF file generated by openbabel 3.1.0, see https://openbabel.org
data_I
_chemical_name_common 'image0'
_cell_length_a 7.31
_cell_length_b 13.144
_cell_length_c 13.8
_cell_angle_alpha 83.46
_cell_angle_beta 82.88
_cell_angle_gamma 84.71
_space_group_name_H-M_alt 'P 1'
_space_group_name_Hall 'P 1'
loop_
    _symmetry_equiv_pos_as_xyz
    x,y,z
loop_
    _atom_site_label
    _atom_site_type_symbol
    _atom_site_fract_x
    _atom_site_fract_y
    _atom_site_fract_z
    _atom_site_occupancy
    N1       N        0.79640    0.78810    0.78960    1.000
    N2       N        0.53540    0.82000    0.60940    1.000
    N3       N        0.90370    0.63320    0.61730    1.000
    N4       N        0.49350    0.62730    0.78070    1.000
    C1       C        0.92600    0.85200    0.75770    1.000
    C2       C        0.99460    0.91360    0.81680    1.000
    C3       C        0.92960    0.91030    0.91530    1.000
    C4       C        0.79610    0.84130    0.94930    1.000
    C5       C        0.73310    0.78370    0.88490    1.000
    C6       C        0.43880    0.79570    0.54080    1.000
    C7       C        0.28820    0.85590    0.50890    1.000
    C8       C        0.23390    0.94900    0.54620    1.000
    C9       C        0.34250    0.97840    0.61270    1.000
    C10      C        0.48790    0.91250    0.64190    1.000
    C11      C        0.06860    0.01400    0.52100    1.000
    C12      C        0.02320    0.56950    0.66770    1.000
    C13      C        0.19180    0.53080    0.62610    1.000
    C14      C        0.24910    0.55710    0.52650    1.000
    C15      C        0.12160    0.61860    0.47470    1.000
    C16      C        0.95360    0.65490    0.52120    1.000
    C17      C        0.42840    0.52310    0.47850    1.000
    C18      C        0.51230    0.52640    0.81090    1.000
    C19      C        0.37790    0.47660    0.87280    1.000
    C20      C        0.21700    0.53130    0.91020    1.000
    C21      C        0.20040    0.63590    0.87960    1.000
    C22      C        0.33820    0.67940    0.81510    1.000
    C23      C        0.07230    0.47810    0.97450    1.000
    C24      C        0.94990    0.95730    0.00920    1.000
    C25      C        0.02830    0.99270    0.95410    1.000
    H1       H        0.97380    0.85550    0.69100    1.000
    H2       H        0.08600    0.95790    0.79000    1.000
    H3       H        0.74930    0.83420    0.01600    1.000
    H4       H        0.64090    0.73900    0.90920    1.000
    H5       H        0.47490    0.73410    0.51240    1.000
    H6       H        0.22250    0.83370    0.46190    1.000
    H7       H        0.31690    0.04260    0.63740    1.000
    H8       H        0.55830    0.93350    0.68750    1.000
    H9       H        0.05980    0.08230    0.53630    1.000
    H10      H        0.98890    0.55070    0.73480    1.000
    H11      H        0.26900    0.48650    0.66460    1.000
    H12      H        0.14990    0.63590    0.40680    1.000
    H13      H        0.87110    0.69650    0.48370    1.000
    H14      H        0.44540    0.53500    0.40960    1.000
    H15      H        0.62150    0.48810    0.78890    1.000
    H16      H        0.39500    0.40540    0.89000    1.000
    H17      H        0.09550    0.67680    0.90290    1.000
    H18      H        0.32160    0.74980    0.79410    1.000
    H19      H        0.08390    0.40590    0.97990    1.000
    Cu1      Cu       0.68850    0.70770    0.69090    1.000
    N5       N        0.20360    0.21190    0.21040    1.000
    N6       N        0.46460    0.18000    0.39060    1.000
    N7       N        0.09630    0.36680    0.38270    1.000
    N8       N        0.50650    0.37270    0.21930    1.000
    C26      C        0.07400    0.14800    0.24230    1.000
    C27      C        0.00540    0.08640    0.18320    1.000
    C28      C        0.07040    0.08970    0.08470    1.000
    C29      C        0.20390    0.15870    0.05070    1.000
    C30      C        0.26690    0.21630    0.11510    1.000
    C31      C        0.56120    0.20430    0.45920    1.000
    C32      C        0.71180    0.14410    0.49110    1.000
    C33      C        0.76610    0.05100    0.45380    1.000
    C34      C        0.65750    0.02160    0.38730    1.000
    C35      C        0.51210    0.08750    0.35810    1.000
    C36      C        0.93140    0.98600    0.47900    1.000
    C37      C        0.97680    0.43050    0.33230    1.000
    C38      C        0.80820    0.46920    0.37390    1.000
    C39      C        0.75090    0.44290    0.47350    1.000
    C40      C        0.87840    0.38140    0.52530    1.000
    C41      C        0.04640    0.34510    0.47880    1.000
    C42      C        0.57160    0.47690    0.52150    1.000
    C43      C        0.48770    0.47360    0.18910    1.000
    C44      C        0.62210    0.52340    0.12720    1.000
    C45      C        0.78300    0.46870    0.08980    1.000
    C46      C        0.79960    0.36410    0.12040    1.000
    C47      C        0.66180    0.32060    0.18490    1.000
    C48      C        0.92770    0.52190    0.02550    1.000
    C49      C        0.05010    0.04270    0.99080    1.000
    C50      C        0.97170    0.00730    0.04590    1.000
    H20      H        0.02620    0.14450    0.30900    1.000
    H21      H        0.91400    0.04210    0.21000    1.000
    H22      H        0.25070    0.16580    0.98400    1.000
    H23      H        0.35910    0.26100    0.09080    1.000
    H24      H        0.52510    0.26590    0.48760    1.000
    H25      H        0.77750    0.16630    0.53810    1.000
    H26      H        0.68310    0.95740    0.36260    1.000
    H27      H        0.44170    0.06650    0.31250    1.000
    H28      H        0.94020    0.91770    0.46370    1.000
    H29      H        0.01110    0.44930    0.26520    1.000
    H30      H        0.73100    0.51350    0.33540    1.000
    H31      H        0.85010    0.36410    0.59320    1.000
    H32      H        0.12890    0.30350    0.51630    1.000
    H33      H        0.55460    0.46500    0.59040    1.000
    H34      H        0.37850    0.51190    0.21110    1.000
    H35      H        0.60500    0.59460    0.11000    1.000
    H36      H        0.90450    0.32320    0.09710    1.000
    H37      H        0.67840    0.25020    0.20590    1.000
    H38      H        0.91610    0.59410    0.02010    1.000
    Cu2      Cu       0.31150    0.29230    0.30910    1.000
