# CIF file generated by openbabel 3.1.0, see https://openbabel.org
data_I
_chemical_name_common 'image0'
_cell_length_a 21.8788
_cell_length_b 21.8788
_cell_length_c 16.1443
_cell_angle_alpha 90
_cell_angle_beta 90
_cell_angle_gamma 90
_space_group_name_H-M_alt 'P 1'
_space_group_name_Hall 'P 1'
loop_
    _symmetry_equiv_pos_as_xyz
    x,y,z
loop_
    _atom_site_label
    _atom_site_type_symbol
    _atom_site_fract_x
    _atom_site_fract_y
    _atom_site_fract_z
    _atom_site_occupancy
    Tb1      Tb       0.66699    0.13417    0.37323    1.000
    N1       N        0.63190    0.08240    0.24610    1.000
    C1       C        0.57300    0.06850    0.23790    1.000
    C2       C        0.55190    0.03300    0.17140    1.000
    H1       H        0.51080    0.02260    0.16740    1.000
    C3       C        0.59210    0.01420    0.11320    1.000
    H2       H        0.57900    0.99100    0.06840    1.000
    C4       C        0.65370    0.03010    0.12100    1.000
    H3       H        0.68210    0.01770    0.08150    1.000
    C5       C        0.67130    0.06410    0.18730    1.000
    C6       C        0.53290    0.09420    0.30340    1.000
    C7       C        0.73700    0.08330    0.20370    1.000
    O1       O        0.77680    0.07320    0.15110    1.000
    O2       O        0.74510    0.11170    0.27200    1.000
    O3       O        0.55940    0.12580    0.36000    1.000
    O4       O        0.47600    0.08470    0.30220    1.000
    Tb2      Tb       0.16699    0.63417    0.87323    1.000
    N2       N        0.13190    0.58240    0.74610    1.000
    C8       C        0.07300    0.56850    0.73790    1.000
    C9       C        0.05190    0.53300    0.67140    1.000
    H4       H        0.01080    0.52260    0.66740    1.000
    C10      C        0.09210    0.51420    0.61320    1.000
    H5       H        0.07900    0.49100    0.56840    1.000
    C11      C        0.15370    0.53010    0.62100    1.000
    H6       H        0.18210    0.51770    0.58150    1.000
    C12      C        0.17130    0.56410    0.68730    1.000
    C13      C        0.03290    0.59420    0.80340    1.000
    C14      C        0.23700    0.58330    0.70370    1.000
    O5       O        0.27680    0.57320    0.65110    1.000
    O6       O        0.24510    0.61170    0.77200    1.000
    O7       O        0.05940    0.62580    0.86000    1.000
    O8       O        0.97600    0.58470    0.80220    1.000
    Tb3      Tb       0.83301    0.86583    0.87323    1.000
    N3       N        0.86810    0.91760    0.74610    1.000
    C15      C        0.92700    0.93150    0.73790    1.000
    C16      C        0.94810    0.96700    0.67140    1.000
    H7       H        0.98920    0.97740    0.66740    1.000
    C17      C        0.90790    0.98580    0.61320    1.000
    H8       H        0.92100    0.00900    0.56840    1.000
    C18      C        0.84630    0.96990    0.62100    1.000
    H9       H        0.81790    0.98230    0.58150    1.000
    C19      C        0.82870    0.93590    0.68730    1.000
    C20      C        0.96710    0.90580    0.80340    1.000
    C21      C        0.76300    0.91670    0.70370    1.000
    O9       O        0.72320    0.92680    0.65110    1.000
    O10      O        0.75490    0.88830    0.77200    1.000
    O11      O        0.94060    0.87420    0.86000    1.000
    O12      O        0.02400    0.91530    0.80220    1.000
    Tb4      Tb       0.33301    0.36583    0.37323    1.000
    N4       N        0.36810    0.41760    0.24610    1.000
    C22      C        0.42700    0.43150    0.23790    1.000
    C23      C        0.44810    0.46700    0.17140    1.000
    H10      H        0.48920    0.47740    0.16740    1.000
    C24      C        0.40790    0.48580    0.11320    1.000
    H11      H        0.42100    0.50900    0.06840    1.000
    C25      C        0.34630    0.46990    0.12100    1.000
    H12      H        0.31790    0.48230    0.08150    1.000
    C26      C        0.32870    0.43590    0.18730    1.000
    C27      C        0.46710    0.40580    0.30340    1.000
    C28      C        0.26300    0.41670    0.20370    1.000
    O13      O        0.22320    0.42680    0.15110    1.000
    O14      O        0.25490    0.38830    0.27200    1.000
    O15      O        0.44060    0.37420    0.36000    1.000
    O16      O        0.52400    0.41530    0.30220    1.000
    Tb5      Tb       0.61583    0.91699    0.62323    1.000
    N5       N        0.66760    0.88190    0.49610    1.000
    C29      C        0.68150    0.82300    0.48790    1.000
    C30      C        0.71700    0.80190    0.42140    1.000
    H13      H        0.72740    0.76080    0.41740    1.000
    C31      C        0.73580    0.84210    0.36320    1.000
    H14      H        0.75900    0.82900    0.31840    1.000
    C32      C        0.71990    0.90370    0.37100    1.000
    H15      H        0.73230    0.93210    0.33150    1.000
    C33      C        0.68590    0.92130    0.43730    1.000
    C34      C        0.65580    0.78290    0.55340    1.000
    C35      C        0.66670    0.98700    0.45370    1.000
    O17      O        0.67680    0.02680    0.40110    1.000
    O18      O        0.63830    0.99510    0.52200    1.000
    O19      O        0.62420    0.80940    0.61000    1.000
    O20      O        0.66530    0.72600    0.55220    1.000
    Tb6      Tb       0.11583    0.41699    0.12323    1.000
    N6       N        0.16760    0.38190    0.99610    1.000
    C36      C        0.18150    0.32300    0.98790    1.000
    C37      C        0.21700    0.30190    0.92140    1.000
    H16      H        0.22740    0.26080    0.91740    1.000
    C38      C        0.23580    0.34210    0.86320    1.000
    H17      H        0.25900    0.32900    0.81840    1.000
    C39      C        0.21990    0.40370    0.87100    1.000
    H18      H        0.23230    0.43210    0.83150    1.000
    C40      C        0.18590    0.42130    0.93730    1.000
    C41      C        0.15580    0.28290    0.05340    1.000
    C42      C        0.16670    0.48700    0.95370    1.000
    O21      O        0.17680    0.52680    0.90110    1.000
    O22      O        0.13830    0.49510    0.02200    1.000
    O23      O        0.12420    0.30940    0.11000    1.000
    O24      O        0.16530    0.22600    0.05220    1.000
    Tb7      Tb       0.88417    0.08301    0.12323    1.000
    N7       N        0.83240    0.11810    0.99610    1.000
    C43      C        0.81850    0.17700    0.98790    1.000
    C44      C        0.78300    0.19810    0.92140    1.000
    H19      H        0.77260    0.23920    0.91740    1.000
    C45      C        0.76420    0.15790    0.86320    1.000
    H20      H        0.74100    0.17100    0.81840    1.000
    C46      C        0.78010    0.09630    0.87100    1.000
    H21      H        0.76770    0.06790    0.83150    1.000
    C47      C        0.81410    0.07870    0.93730    1.000
    C48      C        0.84420    0.21710    0.05340    1.000
    C49      C        0.83330    0.01300    0.95370    1.000
    O25      O        0.82320    0.97320    0.90110    1.000
    O26      O        0.86170    0.00490    0.02200    1.000
    O27      O        0.87580    0.19060    0.11000    1.000
    O28      O        0.83470    0.27400    0.05220    1.000
    Tb8      Tb       0.38417    0.58301    0.62323    1.000
    N8       N        0.33240    0.61810    0.49610    1.000
    C50      C        0.31850    0.67700    0.48790    1.000
    C51      C        0.28300    0.69810    0.42140    1.000
    H22      H        0.27260    0.73920    0.41740    1.000
    C52      C        0.26420    0.65790    0.36320    1.000
    H23      H        0.24100    0.67100    0.31840    1.000
    C53      C        0.28010    0.59630    0.37100    1.000
    H24      H        0.26770    0.56790    0.33150    1.000
    C54      C        0.31410    0.57870    0.43730    1.000
    C55      C        0.34420    0.71710    0.55340    1.000
    C56      C        0.33330    0.51300    0.45370    1.000
    O29      O        0.32320    0.47320    0.40110    1.000
    O30      O        0.36170    0.50490    0.52200    1.000
    O31      O        0.37580    0.69060    0.61000    1.000
    O32      O        0.33470    0.77400    0.55220    1.000
    Tb9      Tb       0.33301    0.86583    0.62677    1.000
    N9       N        0.36810    0.91760    0.75390    1.000
    C57      C        0.42700    0.93150    0.76210    1.000
    C58      C        0.44810    0.96700    0.82860    1.000
    H25      H        0.48920    0.97740    0.83260    1.000
    C59      C        0.40790    0.98580    0.88680    1.000
    H26      H        0.42100    0.00900    0.93160    1.000
    C60      C        0.34630    0.96990    0.87900    1.000
    H27      H        0.31790    0.98230    0.91850    1.000
    C61      C        0.32870    0.93590    0.81270    1.000
    C62      C        0.46710    0.90580    0.69660    1.000
    C63      C        0.26300    0.91670    0.79630    1.000
    O33      O        0.22320    0.92680    0.84890    1.000
    O34      O        0.25490    0.88830    0.72800    1.000
    O35      O        0.44060    0.87420    0.64000    1.000
    O36      O        0.52400    0.91530    0.69780    1.000
    Tb10     Tb       0.83301    0.36583    0.12677    1.000
    N10      N        0.86810    0.41760    0.25390    1.000
    C64      C        0.92700    0.43150    0.26210    1.000
    C65      C        0.94810    0.46700    0.32860    1.000
    H28      H        0.98920    0.47740    0.33260    1.000
    C66      C        0.90790    0.48580    0.38680    1.000
    H29      H        0.92100    0.50900    0.43160    1.000
    C67      C        0.84630    0.46990    0.37900    1.000
    H30      H        0.81790    0.48230    0.41850    1.000
    C68      C        0.82870    0.43590    0.31270    1.000
    C69      C        0.96710    0.40580    0.19660    1.000
    C70      C        0.76300    0.41670    0.29630    1.000
    O37      O        0.72320    0.42680    0.34890    1.000
    O38      O        0.75490    0.38830    0.22800    1.000
    O39      O        0.94060    0.37420    0.14000    1.000
    O40      O        0.02400    0.41530    0.19780    1.000
    Tb11     Tb       0.16699    0.13417    0.12677    1.000
    N11      N        0.13190    0.08240    0.25390    1.000
    C71      C        0.07300    0.06850    0.26210    1.000
    C72      C        0.05190    0.03300    0.32860    1.000
    H31      H        0.01080    0.02260    0.33260    1.000
    C73      C        0.09210    0.01420    0.38680    1.000
    H32      H        0.07900    0.99100    0.43160    1.000
    C74      C        0.15370    0.03010    0.37900    1.000
    H33      H        0.18210    0.01770    0.41850    1.000
    C75      C        0.17130    0.06410    0.31270    1.000
    C76      C        0.03290    0.09420    0.19660    1.000
    C77      C        0.23700    0.08330    0.29630    1.000
    O41      O        0.27680    0.07320    0.34890    1.000
    O42      O        0.24510    0.11170    0.22800    1.000
    O43      O        0.05940    0.12580    0.14000    1.000
    O44      O        0.97600    0.08470    0.19780    1.000
    Tb12     Tb       0.66699    0.63417    0.62677    1.000
    N12      N        0.63190    0.58240    0.75390    1.000
    C78      C        0.57300    0.56850    0.76210    1.000
    C79      C        0.55190    0.53300    0.82860    1.000
    H34      H        0.51080    0.52260    0.83260    1.000
    C80      C        0.59210    0.51420    0.88680    1.000
    H35      H        0.57900    0.49100    0.93160    1.000
    C81      C        0.65370    0.53010    0.87900    1.000
    H36      H        0.68210    0.51770    0.91850    1.000
    C82      C        0.67130    0.56410    0.81270    1.000
    C83      C        0.53290    0.59420    0.69660    1.000
    C84      C        0.73700    0.58330    0.79630    1.000
    O45      O        0.77680    0.57320    0.84890    1.000
    O46      O        0.74510    0.61170    0.72800    1.000
    O47      O        0.55940    0.62580    0.64000    1.000
    O48      O        0.47600    0.58470    0.69780    1.000
    Tb13     Tb       0.38417    0.08301    0.37677    1.000
    N13      N        0.33240    0.11810    0.50390    1.000
    C85      C        0.31850    0.17700    0.51210    1.000
    C86      C        0.28300    0.19810    0.57860    1.000
    H37      H        0.27260    0.23920    0.58260    1.000
    C87      C        0.26420    0.15790    0.63680    1.000
    H38      H        0.24100    0.17100    0.68160    1.000
    C88      C        0.28010    0.09630    0.62900    1.000
    H39      H        0.26770    0.06790    0.66850    1.000
    C89      C        0.31410    0.07870    0.56270    1.000
    C90      C        0.34420    0.21710    0.44660    1.000
    C91      C        0.33330    0.01300    0.54630    1.000
    O49      O        0.32320    0.97320    0.59890    1.000
    O50      O        0.36170    0.00490    0.47800    1.000
    O51      O        0.37580    0.19060    0.39000    1.000
    O52      O        0.33470    0.27400    0.44780    1.000
    Tb14     Tb       0.88417    0.58301    0.87677    1.000
    N14      N        0.83240    0.61810    0.00390    1.000
    C92      C        0.81850    0.67700    0.01210    1.000
    C93      C        0.78300    0.69810    0.07860    1.000
    H40      H        0.77260    0.73920    0.08260    1.000
    C94      C        0.76420    0.65790    0.13680    1.000
    H41      H        0.74100    0.67100    0.18160    1.000
    C95      C        0.78010    0.59630    0.12900    1.000
    H42      H        0.76770    0.56790    0.16850    1.000
    C96      C        0.81410    0.57870    0.06270    1.000
    C97      C        0.84420    0.71710    0.94660    1.000
    C98      C        0.83330    0.51300    0.04630    1.000
    O53      O        0.82320    0.47320    0.09890    1.000
    O54      O        0.86170    0.50490    0.97800    1.000
    O55      O        0.87580    0.69060    0.89000    1.000
    O56      O        0.83470    0.77400    0.94780    1.000
    Tb15     Tb       0.11583    0.91699    0.87677    1.000
    N15      N        0.16760    0.88190    0.00390    1.000
    C99      C        0.18150    0.82300    0.01210    1.000
    C100     C        0.21700    0.80190    0.07860    1.000
    H43      H        0.22740    0.76080    0.08260    1.000
    C101     C        0.23580    0.84210    0.13680    1.000
    H44      H        0.25900    0.82900    0.18160    1.000
    C102     C        0.21990    0.90370    0.12900    1.000
    H45      H        0.23230    0.93210    0.16850    1.000
    C103     C        0.18590    0.92130    0.06270    1.000
    C104     C        0.15580    0.78290    0.94660    1.000
    C105     C        0.16670    0.98700    0.04630    1.000
    O57      O        0.17680    0.02680    0.09890    1.000
    O58      O        0.13830    0.99510    0.97800    1.000
    O59      O        0.12420    0.80940    0.89000    1.000
    O60      O        0.16530    0.72600    0.94780    1.000
    Tb16     Tb       0.61583    0.41699    0.37677    1.000
    N16      N        0.66760    0.38190    0.50390    1.000
    C106     C        0.68150    0.32300    0.51210    1.000
    C107     C        0.71700    0.30190    0.57860    1.000
    H46      H        0.72740    0.26080    0.58260    1.000
    C108     C        0.73580    0.34210    0.63680    1.000
    H47      H        0.75900    0.32900    0.68160    1.000
    C109     C        0.71990    0.40370    0.62900    1.000
    H48      H        0.73230    0.43210    0.66850    1.000
    C110     C        0.68590    0.42130    0.56270    1.000
    C111     C        0.65580    0.28290    0.44660    1.000
    C112     C        0.66670    0.48700    0.54630    1.000
    O61      O        0.67680    0.52680    0.59890    1.000
    O62      O        0.63830    0.49510    0.47800    1.000
    O63      O        0.62420    0.30940    0.39000    1.000
    O64      O        0.66530    0.22600    0.44780    1.000
