# CIF file generated by openbabel 3.1.0, see https://openbabel.org
data_I
_chemical_name_common 'image0'
_cell_length_a 12.5035
_cell_length_b 18.1874
_cell_length_c 5.82
_cell_angle_alpha 90
_cell_angle_beta 101.923
_cell_angle_gamma 90
_space_group_name_H-M_alt 'P 1'
_space_group_name_Hall 'P 1'
loop_
    _symmetry_equiv_pos_as_xyz
    x,y,z
loop_
    _atom_site_label
    _atom_site_type_symbol
    _atom_site_fract_x
    _atom_site_fract_y
    _atom_site_fract_z
    _atom_site_occupancy
    La1      La       0.66950    0.25000    0.37630    1.000
    P1       P        0.46520    0.08890    0.18000    1.000
    P2       P        0.74790    0.11260    0.91400    1.000
    O1       O        0.42990    0.08920    0.91400    1.000
    O2       O        0.49960    0.16820    0.25900    1.000
    O3       O        0.54930    0.03010    0.27800    1.000
    O4       O        0.87300    0.10660    0.93100    1.000
    O5       O        0.69510    0.16300    0.71000    1.000
    O6       O        0.71850    0.13410    0.15100    1.000
    C1       C        0.34840    0.07320    0.31900    1.000
    C2       C        0.69090    0.02290    0.83300    1.000
    N1       N        0.24290    0.03200    0.28700    1.000
    C3       C        0.15290    0.08780    0.27400    1.000
    C4       C        0.12370    0.09920    0.51000    1.000
    C5       C        0.01660    0.06520    0.52400    1.000
    P3       P        0.55320    0.89860    0.79700    1.000
    P4       P        0.20680    0.88040    0.07300    1.000
    O7       O        0.56740    0.86590    0.04500    1.000
    O8       O        0.48310    0.84860    0.60200    1.000
    O9       O        0.50780    0.97590    0.76700    1.000
    O10      O        0.08200    0.86800    0.04100    1.000
    O11      O        0.26800    0.84680    0.30600    1.000
    O12      O        0.24840    0.84870    0.86000    1.000
    C6       C        0.68850    0.89430    0.72100    1.000
    C7       C        0.23120    0.97830    0.08700    1.000
    N2       N        0.69970    0.97150    0.63600    1.000
    C8       C        0.79070    0.98630    0.51000    1.000
    C9       C        0.90300    0.96270    0.64300    1.000
    C10      C        0.99900    0.98490    0.54100    1.000
    La2      La       0.33050    0.75000    0.62370    1.000
    P5       P        0.53480    0.58890    0.82000    1.000
    P6       P        0.25210    0.61260    0.08600    1.000
    O13      O        0.57010    0.58920    0.08600    1.000
    O14      O        0.50040    0.66820    0.74100    1.000
    O15      O        0.45070    0.53010    0.72200    1.000
    O16      O        0.12700    0.60660    0.06900    1.000
    O17      O        0.30490    0.66300    0.29000    1.000
    O18      O        0.28150    0.63410    0.84900    1.000
    C11      C        0.65160    0.57320    0.68100    1.000
    C12      C        0.30910    0.52290    0.16700    1.000
    N3       N        0.75710    0.53200    0.71300    1.000
    C13      C        0.84710    0.58780    0.72600    1.000
    C14      C        0.87630    0.59920    0.49000    1.000
    C15      C        0.98340    0.56520    0.47600    1.000
    P7       P        0.44680    0.39860    0.20300    1.000
    P8       P        0.79320    0.38040    0.92700    1.000
    O19      O        0.43260    0.36590    0.95500    1.000
    O20      O        0.51690    0.34860    0.39800    1.000
    O21      O        0.49220    0.47590    0.23300    1.000
    O22      O        0.91800    0.36800    0.95900    1.000
    O23      O        0.73200    0.34680    0.69400    1.000
    O24      O        0.75160    0.34870    0.14000    1.000
    C16      C        0.31150    0.39430    0.27900    1.000
    C17      C        0.76880    0.47830    0.91300    1.000
    N4       N        0.30030    0.47150    0.36400    1.000
    C18      C        0.20930    0.48630    0.49000    1.000
    C19      C        0.09700    0.46270    0.35700    1.000
    C20      C        0.00100    0.48490    0.45900    1.000
