# CIF file generated by openbabel 3.1.0, see https://openbabel.org
data_I
_chemical_name_common 'image0'
_cell_length_a 10.2345
_cell_length_b 10.2345
_cell_length_c 7.0799
_cell_angle_alpha 90
_cell_angle_beta 90
_cell_angle_gamma 120
_space_group_name_H-M_alt 'P 1'
_space_group_name_Hall 'P 1'
loop_
    _symmetry_equiv_pos_as_xyz
    x,y,z
loop_
    _atom_site_label
    _atom_site_type_symbol
    _atom_site_fract_x
    _atom_site_fract_y
    _atom_site_fract_z
    _atom_site_occupancy
    Zn1      Zn       0.66667    0.33333    0.25000    1.000
    Zn2      Zn       0.33333    0.66667    0.75000    1.000
    Na1      Na       0.00000    0.00000    0.00000    1.000
    Na2      Na       0.00000    0.00000    0.50000    1.000
    N1       N        0.44250    0.22125    0.25000    1.000
    O1       O        0.17900    0.08950    0.25000    1.000
    C1       C        0.31630    0.15815    0.25000    1.000
    N2       N        0.77875    0.22125    0.25000    1.000
    O2       O        0.91050    0.08950    0.25000    1.000
    C2       C        0.84185    0.15815    0.25000    1.000
    N3       N        0.77875    0.55750    0.25000    1.000
    O3       O        0.91050    0.82100    0.25000    1.000
    C3       C        0.84185    0.68370    0.25000    1.000
    N4       N        0.55750    0.77875    0.75000    1.000
    O4       O        0.82100    0.91050    0.75000    1.000
    C4       C        0.68370    0.84185    0.75000    1.000
    N5       N        0.22125    0.77875    0.75000    1.000
    O5       O        0.08950    0.91050    0.75000    1.000
    C5       C        0.15815    0.84185    0.75000    1.000
    N6       N        0.22125    0.44250    0.75000    1.000
    O6       O        0.08950    0.17900    0.75000    1.000
    C6       C        0.15815    0.31630    0.75000    1.000
    O7       O        0.18270    0.15180    0.25000    1.000
    C7       C        0.31750    0.19050    0.25000    1.000
    O8       O        0.84820    0.03090    0.25000    1.000
    C8       C        0.80950    0.12700    0.25000    1.000
    O9       O        0.96910    0.81730    0.25000    1.000
    C9       C        0.87300    0.68250    0.25000    1.000
    O10      O        0.81730    0.84820    0.75000    1.000
    C10      C        0.68250    0.80950    0.75000    1.000
    O11      O        0.15180    0.96910    0.75000    1.000
    C11      C        0.19050    0.87300    0.75000    1.000
    O12      O        0.03090    0.18270    0.75000    1.000
    C12      C        0.12700    0.31750    0.75000    1.000
    O13      O        0.15180    0.18270    0.75000    1.000
    C13      C        0.19050    0.31750    0.75000    1.000
    O14      O        0.03090    0.84820    0.75000    1.000
    C14      C        0.12700    0.80950    0.75000    1.000
    O15      O        0.81730    0.96910    0.75000    1.000
    C15      C        0.68250    0.87300    0.75000    1.000
    O16      O        0.84820    0.81730    0.25000    1.000
    C16      C        0.80950    0.68250    0.25000    1.000
    O17      O        0.96910    0.15180    0.25000    1.000
    C17      C        0.87300    0.19050    0.25000    1.000
    O18      O        0.18270    0.03090    0.25000    1.000
    C18      C        0.31750    0.12700    0.25000    1.000
