# CIF file generated by openbabel 3.1.0, see https://openbabel.org
data_I
_chemical_name_common 'image0'
_cell_length_a 15.528
_cell_length_b 15.999
_cell_length_c 13.519
_cell_angle_alpha 90
_cell_angle_beta 112.643
_cell_angle_gamma 90
_space_group_name_H-M_alt 'P 1'
_space_group_name_Hall 'P 1'
loop_
    _symmetry_equiv_pos_as_xyz
    x,y,z
loop_
    _atom_site_label
    _atom_site_type_symbol
    _atom_site_fract_x
    _atom_site_fract_y
    _atom_site_fract_z
    _atom_site_occupancy
    Nd1      Nd       0.42680    0.04172    0.59229    1.000
    O1       O        0.41410    0.01050    0.76430    1.000
    O2       O        0.28390    0.99050    0.57070    1.000
    O3       O        0.44350    0.88760    0.59220    1.000
    O4       O        0.38910    0.01040    0.40760    1.000
    O5       O        0.49960    0.15340    0.52790    1.000
    C1       C        0.35750    0.99120    0.80940    1.000
    C2       C        0.22880    0.97440    0.62360    1.000
    C3       C        0.46600    0.83360    0.54340    1.000
    C4       C        0.25970    0.98170    0.73440    1.000
    C5       C        0.13540    0.95750    0.56300    1.000
    C6       C        0.44910    0.74470    0.56060    1.000
    C7       C        0.19710    0.97210    0.78450    1.000
    H1       H        0.11480    0.95270    0.48890    1.000
    C8       C        0.07290    0.94790    0.61310    1.000
    C9       C        0.48240    0.68000    0.51580    1.000
    C10      C        0.40310    0.72870    0.63400    1.000
    C11      C        0.10380    0.95520    0.72390    1.000
    H2       H        0.21780    0.97700    0.85860    1.000
    H3       H        0.01040    0.93660    0.57260    1.000
    H4       H        0.51700    0.69150    0.47440    1.000
    C12      C        0.46300    0.59760    0.53400    1.000
    C13      C        0.38700    0.64410    0.65400    1.000
    O6       O        0.37250    0.78490    0.67990    1.000
    N1       N        0.04280    0.95340    0.78210    1.000
    C14      C        0.41600    0.58030    0.60200    1.000
    N2       N        0.50400    0.53670    0.48700    1.000
    H5       H        0.35790    0.63110    0.70040    1.000
    H6       H        0.40290    0.52500    0.61350    1.000
    Nd2      Nd       0.57320    0.04172    0.90771    1.000
    O7       O        0.58590    0.01050    0.73570    1.000
    O8       O        0.71610    0.99050    0.92930    1.000
    O9       O        0.55650    0.88760    0.90780    1.000
    O10      O        0.61090    0.01040    0.09240    1.000
    O11      O        0.50040    0.15340    0.97210    1.000
    C15      C        0.64250    0.99120    0.69060    1.000
    C16      C        0.77120    0.97440    0.87640    1.000
    C17      C        0.53400    0.83360    0.95660    1.000
    C18      C        0.74030    0.98170    0.76560    1.000
    C19      C        0.86460    0.95750    0.93700    1.000
    C20      C        0.55090    0.74470    0.93940    1.000
    C21      C        0.80290    0.97210    0.71550    1.000
    H7       H        0.88520    0.95270    0.01110    1.000
    C22      C        0.92710    0.94790    0.88690    1.000
    C23      C        0.51760    0.68000    0.98420    1.000
    C24      C        0.59690    0.72870    0.86600    1.000
    C25      C        0.89620    0.95520    0.77610    1.000
    H8       H        0.78220    0.97700    0.64140    1.000
    H9       H        0.98960    0.93660    0.92740    1.000
    H10      H        0.48300    0.69150    0.02560    1.000
    C26      C        0.53700    0.59760    0.96600    1.000
    C27      C        0.61300    0.64410    0.84600    1.000
    O12      O        0.62750    0.78490    0.82010    1.000
    N3       N        0.95720    0.95340    0.71790    1.000
    C28      C        0.58400    0.58030    0.89800    1.000
    N4       N        0.49600    0.53670    0.01300    1.000
    H11      H        0.64210    0.63110    0.79960    1.000
    H12      H        0.59710    0.52500    0.88650    1.000
    Nd3      Nd       0.57320    0.95828    0.40771    1.000
    O13      O        0.58590    0.98950    0.23570    1.000
    O14      O        0.71610    0.00950    0.42930    1.000
    O15      O        0.55650    0.11240    0.40780    1.000
    O16      O        0.61090    0.98960    0.59240    1.000
    O17      O        0.50040    0.84660    0.47210    1.000
    C29      C        0.64250    0.00880    0.19060    1.000
    C30      C        0.77120    0.02560    0.37640    1.000
    C31      C        0.53400    0.16640    0.45660    1.000
    C32      C        0.74030    0.01830    0.26560    1.000
    C33      C        0.86460    0.04250    0.43700    1.000
    C34      C        0.55090    0.25530    0.43940    1.000
    C35      C        0.80290    0.02790    0.21550    1.000
    H13      H        0.88520    0.04730    0.51110    1.000
    C36      C        0.92710    0.05210    0.38690    1.000
    C37      C        0.51760    0.32000    0.48420    1.000
    C38      C        0.59690    0.27130    0.36600    1.000
    C39      C        0.89620    0.04480    0.27610    1.000
    H14      H        0.78220    0.02300    0.14140    1.000
    H15      H        0.98960    0.06340    0.42740    1.000
    H16      H        0.48300    0.30850    0.52560    1.000
    C40      C        0.53700    0.40240    0.46600    1.000
    C41      C        0.61300    0.35590    0.34600    1.000
    O18      O        0.62750    0.21510    0.32010    1.000
    N5       N        0.95720    0.04660    0.21790    1.000
    C42      C        0.58400    0.41970    0.39800    1.000
    N6       N        0.49600    0.46330    0.51300    1.000
    H17      H        0.64210    0.36890    0.29960    1.000
    H18      H        0.59710    0.47500    0.38650    1.000
    Nd4      Nd       0.42680    0.95828    0.09229    1.000
    O19      O        0.41410    0.98950    0.26430    1.000
    O20      O        0.28390    0.00950    0.07070    1.000
    O21      O        0.44350    0.11240    0.09220    1.000
    O22      O        0.38910    0.98960    0.90760    1.000
    O23      O        0.49960    0.84660    0.02790    1.000
    C43      C        0.35750    0.00880    0.30940    1.000
    C44      C        0.22880    0.02560    0.12360    1.000
    C45      C        0.46600    0.16640    0.04340    1.000
    C46      C        0.25970    0.01830    0.23440    1.000
    C47      C        0.13540    0.04250    0.06300    1.000
    C48      C        0.44910    0.25530    0.06060    1.000
    C49      C        0.19710    0.02790    0.28450    1.000
    H19      H        0.11480    0.04730    0.98890    1.000
    C50      C        0.07290    0.05210    0.11310    1.000
    C51      C        0.48240    0.32000    0.01580    1.000
    C52      C        0.40310    0.27130    0.13400    1.000
    C53      C        0.10380    0.04480    0.22390    1.000
    H20      H        0.21780    0.02300    0.35860    1.000
    H21      H        0.01040    0.06340    0.07260    1.000
    H22      H        0.51700    0.30850    0.97440    1.000
    C54      C        0.46300    0.40240    0.03400    1.000
    C55      C        0.38700    0.35590    0.15400    1.000
    O24      O        0.37250    0.21510    0.17990    1.000
    N7       N        0.04280    0.04660    0.28210    1.000
    C56      C        0.41600    0.41970    0.10200    1.000
    N8       N        0.50400    0.46330    0.98700    1.000
    H23      H        0.35790    0.36890    0.20040    1.000
    H24      H        0.40290    0.47500    0.11350    1.000
    O25      O        0.50000    0.15320    0.75000    1.000
    O26      O        0.50000    0.84680    0.25000    1.000
