# CIF file generated by openbabel 3.1.0, see https://openbabel.org
data_I
_chemical_name_common 'image0'
_cell_length_a 8.7198
_cell_length_b 18.4218
_cell_length_c 9.2725
_cell_angle_alpha 90
_cell_angle_beta 108.248
_cell_angle_gamma 90
_space_group_name_H-M_alt 'P 1'
_space_group_name_Hall 'P 1'
loop_
    _symmetry_equiv_pos_as_xyz
    x,y,z
loop_
    _atom_site_label
    _atom_site_type_symbol
    _atom_site_fract_x
    _atom_site_fract_y
    _atom_site_fract_z
    _atom_site_occupancy
    C1       C        0.72790    0.04550    0.44930    1.000
    C2       C        0.56440    0.08200    0.40850    1.000
    C3       C        0.48590    0.08540    0.12080    1.000
    C4       C        0.30490    0.06470    0.07400    1.000
    C5       C        0.80720    0.18210    0.83010    1.000
    C6       C        0.85010    0.12160    0.95050    1.000
    N1       N        0.53270    0.12810    0.26680    1.000
    O1       O        0.77010    0.01080    0.57590    1.000
    O2       O        0.81620    0.05240    0.36420    1.000
    O3       O        0.25560    0.03200    0.94790    1.000
    O4       O        0.23230    0.07900    0.16330    1.000
    O5       O        0.91950    0.06460    0.91880    1.000
    O6       O        0.82150    0.13220    0.07760    1.000
    Pr1      Pr       0.00890    0.97600    0.78210    1.000
    C7       C        0.27210    0.54550    0.55070    1.000
    C8       C        0.43560    0.58200    0.59150    1.000
    C9       C        0.51410    0.58540    0.87920    1.000
    C10      C        0.69510    0.56470    0.92600    1.000
    C11      C        0.19280    0.68210    0.16990    1.000
    C12      C        0.14990    0.62160    0.04950    1.000
    N2       N        0.46730    0.62810    0.73320    1.000
    O7       O        0.22990    0.51080    0.42410    1.000
    O8       O        0.18380    0.55240    0.63580    1.000
    O9       O        0.74440    0.53200    0.05210    1.000
    O10      O        0.76770    0.57900    0.83670    1.000
    O11      O        0.08050    0.56460    0.08120    1.000
    O12      O        0.17850    0.63220    0.92240    1.000
    Pr2      Pr       0.99110    0.47600    0.21790    1.000
    C13      C        0.27210    0.95450    0.55070    1.000
    C14      C        0.43560    0.91800    0.59150    1.000
    C15      C        0.51410    0.91460    0.87920    1.000
    C16      C        0.69510    0.93530    0.92600    1.000
    C17      C        0.19280    0.81790    0.16990    1.000
    C18      C        0.14990    0.87840    0.04950    1.000
    N3       N        0.46730    0.87190    0.73320    1.000
    O13      O        0.22990    0.98920    0.42410    1.000
    O14      O        0.18380    0.94760    0.63580    1.000
    O15      O        0.74440    0.96800    0.05210    1.000
    O16      O        0.76770    0.92100    0.83670    1.000
    O17      O        0.08050    0.93540    0.08120    1.000
    O18      O        0.17850    0.86780    0.92240    1.000
    Pr3      Pr       0.99110    0.02400    0.21790    1.000
    C19      C        0.72790    0.45450    0.44930    1.000
    C20      C        0.56440    0.41800    0.40850    1.000
    C21      C        0.48590    0.41460    0.12080    1.000
    C22      C        0.30490    0.43530    0.07400    1.000
    C23      C        0.80720    0.31790    0.83010    1.000
    C24      C        0.85010    0.37840    0.95050    1.000
    N4       N        0.53270    0.37190    0.26680    1.000
    O19      O        0.77010    0.48920    0.57590    1.000
    O20      O        0.81620    0.44760    0.36420    1.000
    O21      O        0.25560    0.46800    0.94790    1.000
    O22      O        0.23230    0.42100    0.16330    1.000
    O23      O        0.91950    0.43540    0.91880    1.000
    O24      O        0.82150    0.36780    0.07760    1.000
    Pr4      Pr       0.00890    0.52400    0.78210    1.000
    N5       N        0.78040    0.25000    0.91560    1.000
    N6       N        0.21960    0.75000    0.08440    1.000
