# CIF file generated by openbabel 3.1.0, see https://openbabel.org
data_I
_chemical_name_common 'image0'
_cell_length_a 29.135
_cell_length_b 13.191
_cell_length_c 8.599
_cell_angle_alpha 90
_cell_angle_beta 90.247
_cell_angle_gamma 90
_space_group_name_H-M_alt 'P 1'
_space_group_name_Hall 'P 1'
loop_
    _symmetry_equiv_pos_as_xyz
    x,y,z
loop_
    _atom_site_label
    _atom_site_type_symbol
    _atom_site_fract_x
    _atom_site_fract_y
    _atom_site_fract_z
    _atom_site_occupancy
    C1       C        0.37646    0.82540    0.73880    1.000
    H1       H        0.37610    0.75490    0.73730    1.000
    C2       C        0.41149    0.87250    0.81670    1.000
    H2       H        0.43380    0.83400    0.86700    1.000
    C3       C        0.41390    0.97580    0.82110    1.000
    C4       C        0.37858    0.02710    0.74750    1.000
    H3       H        0.37780    0.09750    0.74930    1.000
    C5       C        0.34447    0.97380    0.67160    1.000
    H4       H        0.32130    0.01020    0.62210    1.000
    C6       C        0.45202    0.03040    0.90010    1.000
    C7       C        0.45216    0.14250    0.89690    1.000
    H5       H        0.47870    0.16730    0.95150    1.000
    H6       H        0.42490    0.16760    0.94630    1.000
    H7       H        0.45290    0.16550    0.79110    1.000
    C8       C        0.21112    0.76660    0.76200    1.000
    C9       C        0.18851    0.79000    0.91520    1.000
    H8       H        0.19510    0.73580    0.98820    1.000
    H9       H        0.15550    0.79290    0.90030    1.000
    C10      C        0.20519    0.89050    0.98340    1.000
    H10      H        0.19030    0.90190    0.08250    1.000
    H11      H        0.23800    0.88650    0.00220    1.000
    C11      C        0.19527    0.97900    0.87640    1.000
    H12      H        0.16220    0.98560    0.86550    1.000
    H13      H        0.20750    0.96330    0.77440    1.000
    C12      C        0.21454    0.08080    0.92750    1.000
    N1       N        0.34310    0.87360    0.66550    1.000
    N2       N        0.48184    0.97350    0.96400    1.000
    O1       O        0.25193    0.79300    0.74580    1.000
    O2       O        0.18730    0.72220    0.66000    1.000
    O3       O        0.19042    0.15670    0.90370    1.000
    O4       O        0.25385    0.08120    0.98550    1.000
    Cu1      Cu       0.28745    0.79518    0.55066    1.000
    C13      C        0.87646    0.32540    0.73880    1.000
    H14      H        0.87610    0.25490    0.73730    1.000
    C14      C        0.91149    0.37250    0.81670    1.000
    H15      H        0.93380    0.33400    0.86700    1.000
    C15      C        0.91390    0.47580    0.82110    1.000
    C16      C        0.87858    0.52710    0.74750    1.000
    H16      H        0.87780    0.59750    0.74930    1.000
    C17      C        0.84447    0.47380    0.67160    1.000
    H17      H        0.82130    0.51020    0.62210    1.000
    C18      C        0.95202    0.53040    0.90010    1.000
    C19      C        0.95216    0.64250    0.89690    1.000
    H18      H        0.97870    0.66730    0.95150    1.000
    H19      H        0.92490    0.66760    0.94630    1.000
    H20      H        0.95290    0.66550    0.79110    1.000
    C20      C        0.71112    0.26660    0.76200    1.000
    C21      C        0.68851    0.29000    0.91520    1.000
    H21      H        0.69510    0.23580    0.98820    1.000
    H22      H        0.65550    0.29290    0.90030    1.000
    C22      C        0.70519    0.39050    0.98340    1.000
    H23      H        0.69030    0.40190    0.08250    1.000
    H24      H        0.73800    0.38650    0.00220    1.000
    C23      C        0.69527    0.47900    0.87640    1.000
    H25      H        0.66220    0.48560    0.86550    1.000
    H26      H        0.70750    0.46330    0.77440    1.000
    C24      C        0.71454    0.58080    0.92750    1.000
    N3       N        0.84310    0.37360    0.66550    1.000
    N4       N        0.98184    0.47350    0.96400    1.000
    O5       O        0.75193    0.29300    0.74580    1.000
    O6       O        0.68730    0.22220    0.66000    1.000
    O7       O        0.69042    0.65670    0.90370    1.000
    O8       O        0.75385    0.58120    0.98550    1.000
    Cu2      Cu       0.78745    0.29518    0.55066    1.000
    C25      C        0.62354    0.82540    0.76120    1.000
    H27      H        0.62390    0.75490    0.76270    1.000
    C26      C        0.58851    0.87250    0.68330    1.000
    H28      H        0.56620    0.83400    0.63300    1.000
    C27      C        0.58610    0.97580    0.67890    1.000
    C28      C        0.62142    0.02710    0.75250    1.000
    H29      H        0.62220    0.09750    0.75070    1.000
    C29      C        0.65553    0.97380    0.82840    1.000
    H30      H        0.67870    0.01020    0.87790    1.000
    C30      C        0.54798    0.03040    0.59990    1.000
    C31      C        0.54784    0.14250    0.60310    1.000
    H31      H        0.52130    0.16730    0.54850    1.000
    H32      H        0.57510    0.16760    0.55370    1.000
    H33      H        0.54710    0.16550    0.70890    1.000
    C32      C        0.78888    0.76660    0.73800    1.000
    C33      C        0.81149    0.79000    0.58480    1.000
    H34      H        0.80490    0.73580    0.51180    1.000
    H35      H        0.84450    0.79290    0.59970    1.000
    C34      C        0.79481    0.89050    0.51660    1.000
    H36      H        0.80970    0.90190    0.41750    1.000
    H37      H        0.76200    0.88650    0.49780    1.000
    C35      C        0.80473    0.97900    0.62360    1.000
    H38      H        0.83780    0.98560    0.63450    1.000
    H39      H        0.79250    0.96330    0.72560    1.000
    C36      C        0.78546    0.08080    0.57250    1.000
    N5       N        0.65690    0.87360    0.83450    1.000
    N6       N        0.51816    0.97350    0.53600    1.000
    O9       O        0.74807    0.79300    0.75420    1.000
    O10      O        0.81270    0.72220    0.84000    1.000
    O11      O        0.80958    0.15670    0.59630    1.000
    O12      O        0.74615    0.08120    0.51450    1.000
    Cu3      Cu       0.71255    0.79518    0.94934    1.000
    C37      C        0.12354    0.32540    0.76120    1.000
    H40      H        0.12390    0.25490    0.76270    1.000
    C38      C        0.08851    0.37250    0.68330    1.000
    H41      H        0.06620    0.33400    0.63300    1.000
    C39      C        0.08610    0.47580    0.67890    1.000
    C40      C        0.12142    0.52710    0.75250    1.000
    H42      H        0.12220    0.59750    0.75070    1.000
    C41      C        0.15553    0.47380    0.82840    1.000
    H43      H        0.17870    0.51020    0.87790    1.000
    C42      C        0.04798    0.53040    0.59990    1.000
    C43      C        0.04784    0.64250    0.60310    1.000
    H44      H        0.02130    0.66730    0.54850    1.000
    H45      H        0.07510    0.66760    0.55370    1.000
    H46      H        0.04710    0.66550    0.70890    1.000
    C44      C        0.28888    0.26660    0.73800    1.000
    C45      C        0.31149    0.29000    0.58480    1.000
    H47      H        0.30490    0.23580    0.51180    1.000
    H48      H        0.34450    0.29290    0.59970    1.000
    C46      C        0.29481    0.39050    0.51660    1.000
    H49      H        0.30970    0.40190    0.41750    1.000
    H50      H        0.26200    0.38650    0.49780    1.000
    C47      C        0.30473    0.47900    0.62360    1.000
    H51      H        0.33780    0.48560    0.63450    1.000
    H52      H        0.29250    0.46330    0.72560    1.000
    C48      C        0.28546    0.58080    0.57250    1.000
    N7       N        0.15690    0.37360    0.83450    1.000
    N8       N        0.01816    0.47350    0.53600    1.000
    O13      O        0.24807    0.29300    0.75420    1.000
    O14      O        0.31270    0.22220    0.84000    1.000
    O15      O        0.30958    0.65670    0.59630    1.000
    O16      O        0.24615    0.58120    0.51450    1.000
    Cu4      Cu       0.21255    0.29518    0.94934    1.000
    C49      C        0.62354    0.17460    0.26120    1.000
    H53      H        0.62390    0.24510    0.26270    1.000
    C50      C        0.58851    0.12750    0.18330    1.000
    H54      H        0.56620    0.16600    0.13300    1.000
    C51      C        0.58610    0.02420    0.17890    1.000
    C52      C        0.62142    0.97290    0.25250    1.000
    H55      H        0.62220    0.90250    0.25070    1.000
    C53      C        0.65553    0.02620    0.32840    1.000
    H56      H        0.67870    0.98980    0.37790    1.000
    C54      C        0.54798    0.96960    0.09990    1.000
    C55      C        0.54784    0.85750    0.10310    1.000
    H57      H        0.52130    0.83270    0.04850    1.000
    H58      H        0.57510    0.83240    0.05370    1.000
    H59      H        0.54710    0.83450    0.20890    1.000
    C56      C        0.78888    0.23340    0.23800    1.000
    C57      C        0.81149    0.21000    0.08480    1.000
    H60      H        0.80490    0.26420    0.01180    1.000
    H61      H        0.84450    0.20710    0.09970    1.000
    C58      C        0.79481    0.10950    0.01660    1.000
    H62      H        0.80970    0.09810    0.91750    1.000
    H63      H        0.76200    0.11350    0.99780    1.000
    C59      C        0.80473    0.02100    0.12360    1.000
    H64      H        0.83780    0.01440    0.13450    1.000
    H65      H        0.79250    0.03670    0.22560    1.000
    C60      C        0.78546    0.91920    0.07250    1.000
    N9       N        0.65690    0.12640    0.33450    1.000
    N10      N        0.51816    0.02650    0.03600    1.000
    O17      O        0.74807    0.20700    0.25420    1.000
    O18      O        0.81270    0.27780    0.34000    1.000
    O19      O        0.80958    0.84330    0.09630    1.000
    O20      O        0.74615    0.91880    0.01450    1.000
    Cu5      Cu       0.71255    0.20482    0.44934    1.000
    C61      C        0.12354    0.67460    0.26120    1.000
    H66      H        0.12390    0.74510    0.26270    1.000
    C62      C        0.08851    0.62750    0.18330    1.000
    H67      H        0.06620    0.66600    0.13300    1.000
    C63      C        0.08610    0.52420    0.17890    1.000
    C64      C        0.12142    0.47290    0.25250    1.000
    H68      H        0.12220    0.40250    0.25070    1.000
    C65      C        0.15553    0.52620    0.32840    1.000
    H69      H        0.17870    0.48980    0.37790    1.000
    C66      C        0.04798    0.46960    0.09990    1.000
    C67      C        0.04784    0.35750    0.10310    1.000
    H70      H        0.02130    0.33270    0.04850    1.000
    H71      H        0.07510    0.33240    0.05370    1.000
    H72      H        0.04710    0.33450    0.20890    1.000
    C68      C        0.28888    0.73340    0.23800    1.000
    C69      C        0.31149    0.71000    0.08480    1.000
    H73      H        0.30490    0.76420    0.01180    1.000
    H74      H        0.34450    0.70710    0.09970    1.000
    C70      C        0.29481    0.60950    0.01660    1.000
    H75      H        0.30970    0.59810    0.91750    1.000
    H76      H        0.26200    0.61350    0.99780    1.000
    C71      C        0.30473    0.52100    0.12360    1.000
    H77      H        0.33780    0.51440    0.13450    1.000
    H78      H        0.29250    0.53670    0.22560    1.000
    C72      C        0.28546    0.41920    0.07250    1.000
    N11      N        0.15690    0.62640    0.33450    1.000
    N12      N        0.01816    0.52650    0.03600    1.000
    O21      O        0.24807    0.70700    0.25420    1.000
    O22      O        0.31270    0.77780    0.34000    1.000
    O23      O        0.30958    0.34330    0.09630    1.000
    O24      O        0.24615    0.41880    0.01450    1.000
    Cu6      Cu       0.21255    0.70482    0.44934    1.000
    C73      C        0.37646    0.17460    0.23880    1.000
    H79      H        0.37610    0.24510    0.23730    1.000
    C74      C        0.41149    0.12750    0.31670    1.000
    H80      H        0.43380    0.16600    0.36700    1.000
    C75      C        0.41390    0.02420    0.32110    1.000
    C76      C        0.37858    0.97290    0.24750    1.000
    H81      H        0.37780    0.90250    0.24930    1.000
    C77      C        0.34447    0.02620    0.17160    1.000
    H82      H        0.32130    0.98980    0.12210    1.000
    C78      C        0.45202    0.96960    0.40010    1.000
    C79      C        0.45216    0.85750    0.39690    1.000
    H83      H        0.47870    0.83270    0.45150    1.000
    H84      H        0.42490    0.83240    0.44630    1.000
    H85      H        0.45290    0.83450    0.29110    1.000
    C80      C        0.21112    0.23340    0.26200    1.000
    C81      C        0.18851    0.21000    0.41520    1.000
    H86      H        0.19510    0.26420    0.48820    1.000
    H87      H        0.15550    0.20710    0.40030    1.000
    C82      C        0.20519    0.10950    0.48340    1.000
    H88      H        0.19030    0.09810    0.58250    1.000
    H89      H        0.23800    0.11350    0.50220    1.000
    C83      C        0.19527    0.02100    0.37640    1.000
    H90      H        0.16220    0.01440    0.36550    1.000
    H91      H        0.20750    0.03670    0.27440    1.000
    C84      C        0.21454    0.91920    0.42750    1.000
    N13      N        0.34310    0.12640    0.16550    1.000
    N14      N        0.48184    0.02650    0.46400    1.000
    O25      O        0.25193    0.20700    0.24580    1.000
    O26      O        0.18730    0.27780    0.16000    1.000
    O27      O        0.19042    0.84330    0.40370    1.000
    O28      O        0.25385    0.91880    0.48550    1.000
    Cu7      Cu       0.28745    0.20482    0.05066    1.000
    C85      C        0.87646    0.67460    0.23880    1.000
    H92      H        0.87610    0.74510    0.23730    1.000
    C86      C        0.91149    0.62750    0.31670    1.000
    H93      H        0.93380    0.66600    0.36700    1.000
    C87      C        0.91390    0.52420    0.32110    1.000
    C88      C        0.87858    0.47290    0.24750    1.000
    H94      H        0.87780    0.40250    0.24930    1.000
    C89      C        0.84447    0.52620    0.17160    1.000
    H95      H        0.82130    0.48980    0.12210    1.000
    C90      C        0.95202    0.46960    0.40010    1.000
    C91      C        0.95216    0.35750    0.39690    1.000
    H96      H        0.97870    0.33270    0.45150    1.000
    H97      H        0.92490    0.33240    0.44630    1.000
    H98      H        0.95290    0.33450    0.29110    1.000
    C92      C        0.71112    0.73340    0.26200    1.000
    C93      C        0.68851    0.71000    0.41520    1.000
    H99      H        0.69510    0.76420    0.48820    1.000
    H100     H        0.65550    0.70710    0.40030    1.000
    C94      C        0.70519    0.60950    0.48340    1.000
    H101     H        0.69030    0.59810    0.58250    1.000
    H102     H        0.73800    0.61350    0.50220    1.000
    C95      C        0.69527    0.52100    0.37640    1.000
    H103     H        0.66220    0.51440    0.36550    1.000
    H104     H        0.70750    0.53670    0.27440    1.000
    C96      C        0.71454    0.41920    0.42750    1.000
    N15      N        0.84310    0.62640    0.16550    1.000
    N16      N        0.98184    0.52650    0.46400    1.000
    O29      O        0.75193    0.70700    0.24580    1.000
    O30      O        0.68730    0.77780    0.16000    1.000
    O31      O        0.69042    0.34330    0.40370    1.000
    O32      O        0.75385    0.41880    0.48550    1.000
    Cu8      Cu       0.78745    0.70482    0.05066    1.000
