# CIF file generated by openbabel 3.1.0, see https://openbabel.org
data_I
_chemical_name_common 'image0'
_cell_length_a 10.525
_cell_length_b 11.034
_cell_length_c 12.855
_cell_angle_alpha 99.359
_cell_angle_beta 111.301
_cell_angle_gamma 101.265
_space_group_name_H-M_alt 'P 1'
_space_group_name_Hall 'P 1'
loop_
    _symmetry_equiv_pos_as_xyz
    x,y,z
loop_
    _atom_site_label
    _atom_site_type_symbol
    _atom_site_fract_x
    _atom_site_fract_y
    _atom_site_fract_z
    _atom_site_occupancy
    Y1       Y        0.60986    0.54621    0.67714    1.000
    O1       O        0.50030    0.33030    0.59520    1.000
    O2       O        0.66640    0.50860    0.52420    1.000
    O3       O        0.83600    0.70700    0.76430    1.000
    O4       O        0.42890    0.28300    0.40260    1.000
    O5       O        0.68070    0.72970    0.83650    1.000
    O6       O        0.61680    0.44920    0.33770    1.000
    C1       C        0.46910    0.25630    0.49770    1.000
    C2       C        0.48250    0.12120    0.49740    1.000
    C3       C        0.49770    0.07690    0.59400    1.000
    H1       H        0.49580    0.12980    0.65930    1.000
    C4       C        0.48450    0.04310    0.40210    1.000
    C5       C        0.80160    0.76880    0.83530    1.000
    C6       C        0.90070    0.88870    0.91750    1.000
    C7       C        0.04070    0.92390    0.92870    1.000
    C8       C        0.86200    0.96310    0.98970    1.000
    C9       C        0.70400    0.48130    0.44100    1.000
    C10      C        0.85640    0.49030    0.47060    1.000
    C11      C        0.95650    0.54200    0.58370    1.000
    H2       H        0.92670    0.57070    0.64240    1.000
    C12      C        0.90360    0.44780    0.38830    1.000
    N1       N        0.71830    0.95900    0.97200    1.000
    H3       H        0.64740    0.90490    0.91130    1.000
    H4       H        0.70110    0.00970    0.02270    1.000
    N2       N        0.81140    0.38770    0.27190    1.000
    H5       H        0.84560    0.35960    0.22260    1.000
    H6       H        0.71960    0.37830    0.24870    1.000
    H7       H        0.52640    0.92780    0.66540    1.000
    H8       H        0.07080    0.87160    0.88120    1.000
    H9       H        0.76800    0.93860    0.98510    1.000
    H10      H        0.83720    0.41070    0.31060    1.000
    N3       N        0.10100    0.85700    0.86200    1.000
    H11      H        0.04850    0.78650    0.80760    1.000
    H12      H        0.19120    0.88670    0.87520    1.000
    N4       N        0.52050    0.91800    0.70090    1.000
    H13      H        0.51240    0.96990    0.75630    1.000
    H14      H        0.53170    0.84240    0.70820    1.000
    N5       N        0.49900    0.85700    0.29900    1.000
    H15      H        0.50780    0.77840    0.29050    1.000
    H16      H        0.48900    0.89450    0.24260    1.000
    Y2       Y        0.39014    0.45379    0.32286    1.000
    O7       O        0.49970    0.66970    0.40480    1.000
    O8       O        0.33360    0.49140    0.47580    1.000
    O9       O        0.16400    0.29300    0.23570    1.000
    O10      O        0.57110    0.71700    0.59740    1.000
    O11      O        0.31930    0.27030    0.16350    1.000
    O12      O        0.38320    0.55080    0.66230    1.000
    C13      C        0.53090    0.74370    0.50230    1.000
    C14      C        0.51750    0.87880    0.50260    1.000
    C15      C        0.50230    0.92310    0.40600    1.000
    H17      H        0.50420    0.87020    0.34070    1.000
    C16      C        0.51550    0.95690    0.59790    1.000
    C17      C        0.19840    0.23120    0.16470    1.000
    C18      C        0.09930    0.11130    0.08250    1.000
    C19      C        0.95930    0.07610    0.07130    1.000
    C20      C        0.13800    0.03690    0.01030    1.000
    C21      C        0.29600    0.51870    0.55900    1.000
    C22      C        0.14360    0.50970    0.52940    1.000
    C23      C        0.04350    0.45800    0.41630    1.000
    H18      H        0.07330    0.42930    0.35760    1.000
    C24      C        0.09640    0.55220    0.61170    1.000
    N6       N        0.28170    0.04100    0.02800    1.000
    H19      H        0.35260    0.09510    0.08870    1.000
    H20      H        0.29890    0.99030    0.97730    1.000
    N7       N        0.18860    0.61230    0.72810    1.000
    H21      H        0.15440    0.64040    0.77740    1.000
    H22      H        0.28040    0.62170    0.75130    1.000
    H23      H        0.47360    0.07220    0.33460    1.000
    H24      H        0.92920    0.12840    0.11880    1.000
    H25      H        0.23200    0.06140    0.01490    1.000
    H26      H        0.16280    0.58930    0.68940    1.000
    N8       N        0.89900    0.14300    0.13800    1.000
    H27      H        0.95150    0.21350    0.19240    1.000
    H28      H        0.80880    0.11330    0.12480    1.000
    N9       N        0.47950    0.08200    0.29910    1.000
    H29      H        0.48760    0.03010    0.24370    1.000
    H30      H        0.46830    0.15760    0.29180    1.000
    N10      N        0.50100    0.14300    0.70100    1.000
    H31      H        0.49220    0.22160    0.70950    1.000
    H32      H        0.51100    0.10550    0.75740    1.000
