# CIF file generated by openbabel 3.1.0, see https://openbabel.org
data_I
_chemical_name_common 'image0'
_cell_length_a 17.0801
_cell_length_b 17.0782
_cell_length_c 7.592
_cell_angle_alpha 90
_cell_angle_beta 90
_cell_angle_gamma 90
_space_group_name_H-M_alt 'P 1'
_space_group_name_Hall 'P 1'
loop_
    _symmetry_equiv_pos_as_xyz
    x,y,z
loop_
    _atom_site_label
    _atom_site_type_symbol
    _atom_site_fract_x
    _atom_site_fract_y
    _atom_site_fract_z
    _atom_site_occupancy
    Ag1      Ag       0.81416    0.18978    0.24346    1.000
    N1       N        0.90310    0.10050    0.09040    1.000
    N2       N        0.69320    0.19310    0.09130    1.000
    N3       N        0.42140    0.26270    0.09290    1.000
    N4       N        0.84080    0.32080    0.09090    1.000
    N5       N        0.74990    0.58580    0.08740    1.000
    C1       C        0.94870    0.05300    0.17570    1.000
    H1       H        0.94780    0.05370    0.29950    1.000
    C2       C        0.62690    0.20490    0.17470    1.000
    H2       H        0.62760    0.20140    0.29830    1.000
    C3       C        0.55540    0.22200    0.09430    1.000
    C4       C        0.48520    0.24310    0.17310    1.000
    H3       H        0.48390    0.24320    0.29690    1.000
    C5       C        0.82410    0.38640    0.17780    1.000
    H4       H        0.82630    0.38640    0.30150    1.000
    C6       C        0.80270    0.45680    0.08750    1.000
    C7       C        0.77550    0.52380    0.18200    1.000
    H5       H        0.77540    0.52470    0.30580    1.000
    Ag2      Ag       0.18584    0.81022    0.24346    1.000
    N6       N        0.09690    0.89950    0.09040    1.000
    N7       N        0.30680    0.80690    0.09130    1.000
    N8       N        0.57860    0.73730    0.09290    1.000
    N9       N        0.15920    0.67920    0.09090    1.000
    N10      N        0.25010    0.41420    0.08740    1.000
    C8       C        0.05130    0.94700    0.17570    1.000
    H6       H        0.05220    0.94630    0.29950    1.000
    C9       C        0.37310    0.79510    0.17470    1.000
    H7       H        0.37240    0.79860    0.29830    1.000
    C10      C        0.44460    0.77800    0.09430    1.000
    C11      C        0.51480    0.75690    0.17310    1.000
    H8       H        0.51610    0.75680    0.29690    1.000
    C12      C        0.17590    0.61360    0.17780    1.000
    H9       H        0.17370    0.61360    0.30150    1.000
    C13      C        0.19730    0.54320    0.08750    1.000
    C14      C        0.22450    0.47620    0.18200    1.000
    H10      H        0.22460    0.47530    0.30580    1.000
    Ag3      Ag       0.68584    0.68978    0.25654    1.000
    N11      N        0.59690    0.60050    0.40960    1.000
    N12      N        0.80680    0.69310    0.40870    1.000
    N13      N        0.07860    0.76270    0.40710    1.000
    N14      N        0.65920    0.82080    0.40910    1.000
    N15      N        0.75010    0.08580    0.41260    1.000
    C15      C        0.55130    0.55300    0.32430    1.000
    H11      H        0.55220    0.55370    0.20050    1.000
    C16      C        0.87310    0.70490    0.32530    1.000
    H12      H        0.87240    0.70140    0.20170    1.000
    C17      C        0.94460    0.72200    0.40570    1.000
    C18      C        0.01480    0.74310    0.32690    1.000
    H13      H        0.01610    0.74320    0.20310    1.000
    C19      C        0.67590    0.88640    0.32220    1.000
    H14      H        0.67370    0.88640    0.19850    1.000
    C20      C        0.69730    0.95680    0.41250    1.000
    C21      C        0.72450    0.02380    0.31800    1.000
    H15      H        0.72460    0.02470    0.19420    1.000
    Ag4      Ag       0.31416    0.31022    0.25654    1.000
    N16      N        0.40310    0.39950    0.40960    1.000
    N17      N        0.19320    0.30690    0.40870    1.000
    N18      N        0.92140    0.23730    0.40710    1.000
    N19      N        0.34080    0.17920    0.40910    1.000
    N20      N        0.24990    0.91420    0.41260    1.000
    C22      C        0.44870    0.44700    0.32430    1.000
    H16      H        0.44780    0.44630    0.20050    1.000
    C23      C        0.12690    0.29510    0.32530    1.000
    H17      H        0.12760    0.29860    0.20170    1.000
    C24      C        0.05540    0.27800    0.40570    1.000
    C25      C        0.98520    0.25690    0.32690    1.000
    H18      H        0.98390    0.25680    0.20310    1.000
    C26      C        0.32410    0.11360    0.32220    1.000
    H19      H        0.32630    0.11360    0.19850    1.000
    C27      C        0.30270    0.04320    0.41250    1.000
    C28      C        0.27550    0.97620    0.31800    1.000
    H20      H        0.27540    0.97530    0.19420    1.000
    Ag5      Ag       0.18584    0.81022    0.75654    1.000
    N21      N        0.09690    0.89950    0.90960    1.000
    N22      N        0.30680    0.80690    0.90870    1.000
    N23      N        0.57860    0.73730    0.90710    1.000
    N24      N        0.15920    0.67920    0.90910    1.000
    N25      N        0.25010    0.41420    0.91260    1.000
    C29      C        0.05130    0.94700    0.82430    1.000
    H21      H        0.05220    0.94630    0.70050    1.000
    C30      C        0.37310    0.79510    0.82530    1.000
    H22      H        0.37240    0.79860    0.70170    1.000
    C31      C        0.44460    0.77800    0.90570    1.000
    C32      C        0.51480    0.75690    0.82690    1.000
    H23      H        0.51610    0.75680    0.70310    1.000
    C33      C        0.17590    0.61360    0.82220    1.000
    H24      H        0.17370    0.61360    0.69850    1.000
    C34      C        0.19730    0.54320    0.91250    1.000
    C35      C        0.22450    0.47620    0.81800    1.000
    H25      H        0.22460    0.47530    0.69420    1.000
    Ag6      Ag       0.81416    0.18978    0.75654    1.000
    N26      N        0.90310    0.10050    0.90960    1.000
    N27      N        0.69320    0.19310    0.90870    1.000
    N28      N        0.42140    0.26270    0.90710    1.000
    N29      N        0.84080    0.32080    0.90910    1.000
    N30      N        0.74990    0.58580    0.91260    1.000
    C36      C        0.94870    0.05300    0.82430    1.000
    H26      H        0.94780    0.05370    0.70050    1.000
    C37      C        0.62690    0.20490    0.82530    1.000
    H27      H        0.62760    0.20140    0.70170    1.000
    C38      C        0.55540    0.22200    0.90570    1.000
    C39      C        0.48520    0.24310    0.82690    1.000
    H28      H        0.48390    0.24320    0.70310    1.000
    C40      C        0.82410    0.38640    0.82220    1.000
    H29      H        0.82630    0.38640    0.69850    1.000
    C41      C        0.80270    0.45680    0.91250    1.000
    C42      C        0.77550    0.52380    0.81800    1.000
    H30      H        0.77540    0.52470    0.69420    1.000
    Ag7      Ag       0.31416    0.31022    0.74346    1.000
    N31      N        0.40310    0.39950    0.59040    1.000
    N32      N        0.19320    0.30690    0.59130    1.000
    N33      N        0.92140    0.23730    0.59290    1.000
    N34      N        0.34080    0.17920    0.59090    1.000
    N35      N        0.24990    0.91420    0.58740    1.000
    C43      C        0.44870    0.44700    0.67570    1.000
    H31      H        0.44780    0.44630    0.79950    1.000
    C44      C        0.12690    0.29510    0.67470    1.000
    H32      H        0.12760    0.29860    0.79830    1.000
    C45      C        0.05540    0.27800    0.59430    1.000
    C46      C        0.98520    0.25690    0.67310    1.000
    H33      H        0.98390    0.25680    0.79690    1.000
    C47      C        0.32410    0.11360    0.67780    1.000
    H34      H        0.32630    0.11360    0.80150    1.000
    C48      C        0.30270    0.04320    0.58750    1.000
    C49      C        0.27550    0.97620    0.68200    1.000
    H35      H        0.27540    0.97530    0.80580    1.000
    Ag8      Ag       0.68584    0.68978    0.74346    1.000
    N36      N        0.59690    0.60050    0.59040    1.000
    N37      N        0.80680    0.69310    0.59130    1.000
    N38      N        0.07860    0.76270    0.59290    1.000
    N39      N        0.65920    0.82080    0.59090    1.000
    N40      N        0.75010    0.08580    0.58740    1.000
    C50      C        0.55130    0.55300    0.67570    1.000
    H36      H        0.55220    0.55370    0.79950    1.000
    C51      C        0.87310    0.70490    0.67470    1.000
    H37      H        0.87240    0.70140    0.79830    1.000
    C52      C        0.94460    0.72200    0.59430    1.000
    C53      C        0.01480    0.74310    0.67310    1.000
    H38      H        0.01610    0.74320    0.79690    1.000
    C54      C        0.67590    0.88640    0.67780    1.000
    H39      H        0.67370    0.88640    0.80150    1.000
    C55      C        0.69730    0.95680    0.58750    1.000
    C56      C        0.72450    0.02380    0.68200    1.000
    H40      H        0.72460    0.02470    0.80580    1.000
    C57      C        0.00000    0.00000    0.08830    1.000
    C58      C        0.50000    0.50000    0.41170    1.000
    C59      C        0.00000    0.00000    0.91170    1.000
    C60      C        0.50000    0.50000    0.58830    1.000
