# CIF file generated by openbabel 3.1.0, see https://openbabel.org
data_I
_chemical_name_common 'image0'
_cell_length_a 18.5114
_cell_length_b 20.0115
_cell_length_c 8.7093
_cell_angle_alpha 90
_cell_angle_beta 100.555
_cell_angle_gamma 90
_space_group_name_H-M_alt 'P 1'
_space_group_name_Hall 'P 1'
loop_
    _symmetry_equiv_pos_as_xyz
    x,y,z
loop_
    _atom_site_label
    _atom_site_type_symbol
    _atom_site_fract_x
    _atom_site_fract_y
    _atom_site_fract_z
    _atom_site_occupancy
    N1       N        0.91967    0.25373    0.72440    1.000
    N2       N        0.00115    0.16809    0.99250    1.000
    N3       N        0.58795    0.60039    0.78450    1.000
    C1       C        0.86973    0.26450    0.59500    1.000
    H1       H        0.86980    0.23670    0.50950    1.000
    C2       C        0.91918    0.29613    0.84210    1.000
    H2       H        0.95450    0.29090    0.93210    1.000
    C3       C        0.81820    0.31475    0.58230    1.000
    H3       H        0.78490    0.32030    0.48930    1.000
    C4       C        0.81560    0.35669    0.70600    1.000
    C5       C        0.64993    0.61052    0.73250    1.000
    H4       H        0.65580    0.65080    0.68290    1.000
    C6       C        0.86910    0.34736    0.83760    1.000
    H5       H        0.87120    0.37560    0.92300    1.000
    C7       C        0.58207    0.54224    0.85690    1.000
    H6       H        0.54040    0.53470    0.89990    1.000
    C8       C        0.69830    0.50257    0.81650    1.000
    C9       C        0.63510    0.49270    0.87080    1.000
    H7       H        0.62730    0.45230    0.91780    1.000
    C10      C        0.00040    0.15246    0.11640    1.000
    N4       N        0.01480    0.12530    0.25450    1.000
    C11      C        0.75650    0.44910    0.83640    1.000
    H8       H        0.80420    0.46990    0.86910    1.000
    H9       H        0.74840    0.41900    0.91890    1.000
    C12      C        0.70660    0.56420    0.74820    1.000
    H10      H        0.74980    0.57440    0.71320    1.000
    C13      C        0.75760    0.41000    0.69340    1.000
    H11      H        0.76430    0.44060    0.61080    1.000
    H12      H        0.70990    0.38900    0.66220    1.000
    N5       N        0.41967    0.75373    0.72440    1.000
    N6       N        0.50115    0.66809    0.99250    1.000
    N7       N        0.08795    0.10039    0.78450    1.000
    C14      C        0.36973    0.76450    0.59500    1.000
    H13      H        0.36980    0.73670    0.50950    1.000
    C15      C        0.41918    0.79613    0.84210    1.000
    H14      H        0.45450    0.79090    0.93210    1.000
    C16      C        0.31820    0.81475    0.58230    1.000
    H15      H        0.28490    0.82030    0.48930    1.000
    C17      C        0.31560    0.85669    0.70600    1.000
    C18      C        0.14993    0.11052    0.73250    1.000
    H16      H        0.15580    0.15080    0.68290    1.000
    C19      C        0.36910    0.84736    0.83760    1.000
    H17      H        0.37120    0.87560    0.92300    1.000
    C20      C        0.08207    0.04224    0.85690    1.000
    H18      H        0.04040    0.03470    0.89990    1.000
    C21      C        0.19830    0.00257    0.81650    1.000
    C22      C        0.13510    0.99270    0.87080    1.000
    H19      H        0.12730    0.95230    0.91780    1.000
    C23      C        0.50040    0.65246    0.11640    1.000
    N8       N        0.51480    0.62530    0.25450    1.000
    C24      C        0.25650    0.94910    0.83640    1.000
    H20      H        0.30420    0.96990    0.86910    1.000
    H21      H        0.24840    0.91900    0.91890    1.000
    C25      C        0.20660    0.06420    0.74820    1.000
    H22      H        0.24980    0.07440    0.71320    1.000
    C26      C        0.25760    0.91000    0.69340    1.000
    H23      H        0.26430    0.94060    0.61080    1.000
    H24      H        0.20990    0.88900    0.66220    1.000
    N9       N        0.08033    0.25373    0.77560    1.000
    N10      N        0.99885    0.16809    0.50750    1.000
    N11      N        0.41205    0.60039    0.71550    1.000
    C27      C        0.13027    0.26450    0.90500    1.000
    H25      H        0.13020    0.23670    0.99050    1.000
    C28      C        0.08082    0.29613    0.65790    1.000
    H26      H        0.04550    0.29090    0.56790    1.000
    C29      C        0.18180    0.31475    0.91770    1.000
    H27      H        0.21510    0.32030    0.01070    1.000
    C30      C        0.18440    0.35669    0.79400    1.000
    C31      C        0.35007    0.61052    0.76750    1.000
    H28      H        0.34420    0.65080    0.81710    1.000
    C32      C        0.13090    0.34736    0.66240    1.000
    H29      H        0.12880    0.37560    0.57700    1.000
    C33      C        0.41793    0.54224    0.64310    1.000
    H30      H        0.45960    0.53470    0.60010    1.000
    C34      C        0.30170    0.50257    0.68350    1.000
    C35      C        0.36490    0.49270    0.62920    1.000
    H31      H        0.37270    0.45230    0.58220    1.000
    C36      C        0.99960    0.15246    0.38360    1.000
    N12      N        0.98520    0.12530    0.24550    1.000
    C37      C        0.24350    0.44910    0.66360    1.000
    H32      H        0.19580    0.46990    0.63090    1.000
    H33      H        0.25160    0.41900    0.58110    1.000
    C38      C        0.29340    0.56420    0.75180    1.000
    H34      H        0.25020    0.57440    0.78680    1.000
    C39      C        0.24240    0.41000    0.80660    1.000
    H35      H        0.23570    0.44060    0.88920    1.000
    H36      H        0.29010    0.38900    0.83780    1.000
    N13      N        0.58033    0.75373    0.77560    1.000
    N14      N        0.49885    0.66809    0.50750    1.000
    N15      N        0.91205    0.10039    0.71550    1.000
    C40      C        0.63027    0.76450    0.90500    1.000
    H37      H        0.63020    0.73670    0.99050    1.000
    C41      C        0.58082    0.79613    0.65790    1.000
    H38      H        0.54550    0.79090    0.56790    1.000
    C42      C        0.68180    0.81475    0.91770    1.000
    H39      H        0.71510    0.82030    0.01070    1.000
    C43      C        0.68440    0.85669    0.79400    1.000
    C44      C        0.85007    0.11052    0.76750    1.000
    H40      H        0.84420    0.15080    0.81710    1.000
    C45      C        0.63090    0.84736    0.66240    1.000
    H41      H        0.62880    0.87560    0.57700    1.000
    C46      C        0.91793    0.04224    0.64310    1.000
    H42      H        0.95960    0.03470    0.60010    1.000
    C47      C        0.80170    0.00257    0.68350    1.000
    C48      C        0.86490    0.99270    0.62920    1.000
    H43      H        0.87270    0.95230    0.58220    1.000
    C49      C        0.49960    0.65246    0.38360    1.000
    N16      N        0.48520    0.62530    0.24550    1.000
    C50      C        0.74350    0.94910    0.66360    1.000
    H44      H        0.69580    0.96990    0.63090    1.000
    H45      H        0.75160    0.91900    0.58110    1.000
    C51      C        0.79340    0.06420    0.75180    1.000
    H46      H        0.75020    0.07440    0.78680    1.000
    C52      C        0.74240    0.91000    0.80660    1.000
    H47      H        0.73570    0.94060    0.88920    1.000
    H48      H        0.79010    0.88900    0.83780    1.000
    Co1      Co       0.00000    0.17504    0.75000    1.000
    Co2      Co       0.50000    0.67504    0.75000    1.000
    N17      N        0.08033    0.74627    0.27560    1.000
    N18      N        0.99885    0.83191    0.00750    1.000
    N19      N        0.41205    0.39961    0.21550    1.000
    C53      C        0.13027    0.73550    0.40500    1.000
    H49      H        0.13020    0.76330    0.49050    1.000
    C54      C        0.08082    0.70387    0.15790    1.000
    H50      H        0.04550    0.70910    0.06790    1.000
    C55      C        0.18180    0.68525    0.41770    1.000
    H51      H        0.21510    0.67970    0.51070    1.000
    C56      C        0.18440    0.64331    0.29400    1.000
    C57      C        0.35007    0.38948    0.26750    1.000
    H52      H        0.34420    0.34920    0.31710    1.000
    C58      C        0.13090    0.65264    0.16240    1.000
    H53      H        0.12880    0.62440    0.07700    1.000
    C59      C        0.41793    0.45776    0.14310    1.000
    H54      H        0.45960    0.46530    0.10010    1.000
    C60      C        0.30170    0.49743    0.18350    1.000
    C61      C        0.36490    0.50730    0.12920    1.000
    H55      H        0.37270    0.54770    0.08220    1.000
    C62      C        0.99960    0.84754    0.88360    1.000
    N20      N        0.98520    0.87470    0.74550    1.000
    C63      C        0.24350    0.55090    0.16360    1.000
    H56      H        0.19580    0.53010    0.13090    1.000
    H57      H        0.25160    0.58100    0.08110    1.000
    C64      C        0.29340    0.43580    0.25180    1.000
    H58      H        0.25020    0.42560    0.28680    1.000
    C65      C        0.24240    0.59000    0.30660    1.000
    H59      H        0.23570    0.55940    0.38920    1.000
    H60      H        0.29010    0.61100    0.33780    1.000
    N21      N        0.58033    0.24627    0.27560    1.000
    N22      N        0.49885    0.33191    0.00750    1.000
    N23      N        0.91205    0.89961    0.21550    1.000
    C66      C        0.63027    0.23550    0.40500    1.000
    H61      H        0.63020    0.26330    0.49050    1.000
    C67      C        0.58082    0.20387    0.15790    1.000
    H62      H        0.54550    0.20910    0.06790    1.000
    C68      C        0.68180    0.18525    0.41770    1.000
    H63      H        0.71510    0.17970    0.51070    1.000
    C69      C        0.68440    0.14331    0.29400    1.000
    C70      C        0.85007    0.88948    0.26750    1.000
    H64      H        0.84420    0.84920    0.31710    1.000
    C71      C        0.63090    0.15264    0.16240    1.000
    H65      H        0.62880    0.12440    0.07700    1.000
    C72      C        0.91793    0.95776    0.14310    1.000
    H66      H        0.95960    0.96530    0.10010    1.000
    C73      C        0.80170    0.99743    0.18350    1.000
    C74      C        0.86490    0.00730    0.12920    1.000
    H67      H        0.87270    0.04770    0.08220    1.000
    C75      C        0.49960    0.34754    0.88360    1.000
    N24      N        0.48520    0.37470    0.74550    1.000
    C76      C        0.74350    0.05090    0.16360    1.000
    H68      H        0.69580    0.03010    0.13090    1.000
    H69      H        0.75160    0.08100    0.08110    1.000
    C77      C        0.79340    0.93580    0.25180    1.000
    H70      H        0.75020    0.92560    0.28680    1.000
    C78      C        0.74240    0.09000    0.30660    1.000
    H71      H        0.73570    0.05940    0.38920    1.000
    H72      H        0.79010    0.11100    0.33780    1.000
    N25      N        0.91967    0.74627    0.22440    1.000
    N26      N        0.00115    0.83191    0.49250    1.000
    N27      N        0.58795    0.39961    0.28450    1.000
    C79      C        0.86973    0.73550    0.09500    1.000
    H73      H        0.86980    0.76330    0.00950    1.000
    C80      C        0.91918    0.70387    0.34210    1.000
    H74      H        0.95450    0.70910    0.43210    1.000
    C81      C        0.81820    0.68525    0.08230    1.000
    H75      H        0.78490    0.67970    0.98930    1.000
    C82      C        0.81560    0.64331    0.20600    1.000
    C83      C        0.64993    0.38948    0.23250    1.000
    H76      H        0.65580    0.34920    0.18290    1.000
    C84      C        0.86910    0.65264    0.33760    1.000
    H77      H        0.87120    0.62440    0.42300    1.000
    C85      C        0.58207    0.45776    0.35690    1.000
    H78      H        0.54040    0.46530    0.39990    1.000
    C86      C        0.69830    0.49743    0.31650    1.000
    C87      C        0.63510    0.50730    0.37080    1.000
    H79      H        0.62730    0.54770    0.41780    1.000
    C88      C        0.00040    0.84754    0.61640    1.000
    N28      N        0.01480    0.87470    0.75450    1.000
    C89      C        0.75650    0.55090    0.33640    1.000
    H80      H        0.80420    0.53010    0.36910    1.000
    H81      H        0.74840    0.58100    0.41890    1.000
    C90      C        0.70660    0.43580    0.24820    1.000
    H82      H        0.74980    0.42560    0.21320    1.000
    C91      C        0.75760    0.59000    0.19340    1.000
    H83      H        0.76430    0.55940    0.11080    1.000
    H84      H        0.70990    0.61100    0.16220    1.000
    N29      N        0.41967    0.24627    0.22440    1.000
    N30      N        0.50115    0.33191    0.49250    1.000
    N31      N        0.08795    0.89961    0.28450    1.000
    C92      C        0.36973    0.23550    0.09500    1.000
    H85      H        0.36980    0.26330    0.00950    1.000
    C93      C        0.41918    0.20387    0.34210    1.000
    H86      H        0.45450    0.20910    0.43210    1.000
    C94      C        0.31820    0.18525    0.08230    1.000
    H87      H        0.28490    0.17970    0.98930    1.000
    C95      C        0.31560    0.14331    0.20600    1.000
    C96      C        0.14993    0.88948    0.23250    1.000
    H88      H        0.15580    0.84920    0.18290    1.000
    C97      C        0.36910    0.15264    0.33760    1.000
    H89      H        0.37120    0.12440    0.42300    1.000
    C98      C        0.08207    0.95776    0.35690    1.000
    H90      H        0.04040    0.96530    0.39990    1.000
    C99      C        0.19830    0.99743    0.31650    1.000
    C100     C        0.13510    0.00730    0.37080    1.000
    H91      H        0.12730    0.04770    0.41780    1.000
    C101     C        0.50040    0.34754    0.61640    1.000
    N32      N        0.51480    0.37470    0.75450    1.000
    C102     C        0.25650    0.05090    0.33640    1.000
    H92      H        0.30420    0.03010    0.36910    1.000
    H93      H        0.24840    0.08100    0.41890    1.000
    C103     C        0.20660    0.93580    0.24820    1.000
    H94      H        0.24980    0.92560    0.21320    1.000
    C104     C        0.25760    0.09000    0.19340    1.000
    H95      H        0.26430    0.05940    0.11080    1.000
    H96      H        0.20990    0.11100    0.16220    1.000
    Co3      Co       0.00000    0.82496    0.25000    1.000
    Co4      Co       0.50000    0.32496    0.25000    1.000
