# CIF file generated by openbabel 3.1.0, see https://openbabel.org
data_I
_chemical_name_common 'image0'
_cell_length_a 11.054
_cell_length_b 22.723
_cell_length_c 14.666
_cell_angle_alpha 90
_cell_angle_beta 96.8
_cell_angle_gamma 90
_space_group_name_H-M_alt 'P 1'
_space_group_name_Hall 'P 1'
loop_
    _symmetry_equiv_pos_as_xyz
    x,y,z
loop_
    _atom_site_label
    _atom_site_type_symbol
    _atom_site_fract_x
    _atom_site_fract_y
    _atom_site_fract_z
    _atom_site_occupancy
    Cd1      Cd       0.13925    0.92455    0.21106    1.000
    C1       C        0.10570    0.71143    0.75730    1.000
    H1       H        0.09080    0.71250    0.69360    1.000
    C2       C        0.09670    0.76300    0.80530    1.000
    H2       H        0.07670    0.79800    0.77430    1.000
    C3       C        0.11760    0.76210    0.90013    1.000
    C4       C        0.15000    0.70911    0.94210    1.000
    H3       H        0.16660    0.70690    0.00560    1.000
    C5       C        0.15740    0.65968    0.88900    1.000
    H4       H        0.17920    0.62430    0.91820    1.000
    C6       C        0.10720    0.81598    0.95316    1.000
    C7       C        0.39030    0.93255    0.12040    1.000
    H5       H        0.33190    0.94030    0.07090    1.000
    C8       C        0.51010    0.93596    0.10720    1.000
    H6       H        0.53170    0.94630    0.04990    1.000
    C9       C        0.60020    0.92398    0.17960    1.000
    C10      C        0.56200    0.90716    0.26170    1.000
    H7       H        0.61870    0.89690    0.31110    1.000
    C11      C        0.43850    0.90560    0.27040    1.000
    H8       H        0.41460    0.89500    0.32680    1.000
    C12      C        0.72840    0.93167    0.16536    1.000
    N1       N        0.13480    0.65996    0.79792    1.000
    N2       N        0.06960    0.86742    0.91689    1.000
    N3       N        0.07340    0.90321    0.98799    1.000
    N4       N        0.11290    0.87453    0.06417    1.000
    N5       N        0.13420    0.81901    0.04378    1.000
    N6       N        0.35210    0.91856    0.20182    1.000
    N7       N        0.76120    0.95916    0.09230    1.000
    N8       N        0.88120    0.95899    0.10483    1.000
    N9       N        0.92020    0.93192    0.18243    1.000
    N10      N        0.82460    0.91404    0.22294    1.000
    N11      N        0.14270    0.00862    0.12526    1.000
    N12      N        0.21900    0.04515    0.13470    1.000
    N13      N        0.29310    0.08010    0.14340    1.000
    Cd2      Cd       0.86075    0.42455    0.28894    1.000
    C13      C        0.89430    0.21143    0.74270    1.000
    H9       H        0.90920    0.21250    0.80640    1.000
    C14      C        0.90330    0.26300    0.69470    1.000
    H10      H        0.92330    0.29800    0.72570    1.000
    C15      C        0.88240    0.26210    0.59987    1.000
    C16      C        0.85000    0.20911    0.55790    1.000
    H11      H        0.83340    0.20690    0.49440    1.000
    C17      C        0.84260    0.15968    0.61100    1.000
    H12      H        0.82080    0.12430    0.58180    1.000
    C18      C        0.89280    0.31598    0.54684    1.000
    C19      C        0.60970    0.43255    0.37960    1.000
    H13      H        0.66810    0.44030    0.42910    1.000
    C20      C        0.48990    0.43596    0.39280    1.000
    H14      H        0.46830    0.44630    0.45010    1.000
    C21      C        0.39980    0.42398    0.32040    1.000
    C22      C        0.43800    0.40716    0.23830    1.000
    H15      H        0.38130    0.39690    0.18890    1.000
    C23      C        0.56150    0.40560    0.22960    1.000
    H16      H        0.58540    0.39500    0.17320    1.000
    C24      C        0.27160    0.43167    0.33464    1.000
    N14      N        0.86520    0.15996    0.70208    1.000
    N15      N        0.93040    0.36742    0.58311    1.000
    N16      N        0.92660    0.40321    0.51201    1.000
    N17      N        0.88710    0.37453    0.43583    1.000
    N18      N        0.86580    0.31901    0.45622    1.000
    N19      N        0.64790    0.41856    0.29818    1.000
    N20      N        0.23880    0.45916    0.40770    1.000
    N21      N        0.11880    0.45899    0.39517    1.000
    N22      N        0.07980    0.43192    0.31757    1.000
    N23      N        0.17540    0.41404    0.27706    1.000
    N24      N        0.85730    0.50862    0.37474    1.000
    N25      N        0.78100    0.54515    0.36530    1.000
    N26      N        0.70690    0.58010    0.35660    1.000
    Cd3      Cd       0.86075    0.07545    0.78894    1.000
    C25      C        0.89430    0.28857    0.24270    1.000
    H17      H        0.90920    0.28750    0.30640    1.000
    C26      C        0.90330    0.23700    0.19470    1.000
    H18      H        0.92330    0.20200    0.22570    1.000
    C27      C        0.88240    0.23790    0.09987    1.000
    C28      C        0.85000    0.29089    0.05790    1.000
    H19      H        0.83340    0.29310    0.99440    1.000
    C29      C        0.84260    0.34032    0.11100    1.000
    H20      H        0.82080    0.37570    0.08180    1.000
    C30      C        0.89280    0.18402    0.04684    1.000
    C31      C        0.60970    0.06745    0.87960    1.000
    H21      H        0.66810    0.05970    0.92910    1.000
    C32      C        0.48990    0.06404    0.89280    1.000
    H22      H        0.46830    0.05370    0.95010    1.000
    C33      C        0.39980    0.07602    0.82040    1.000
    C34      C        0.43800    0.09284    0.73830    1.000
    H23      H        0.38130    0.10310    0.68890    1.000
    C35      C        0.56150    0.09440    0.72960    1.000
    H24      H        0.58540    0.10500    0.67320    1.000
    C36      C        0.27160    0.06833    0.83464    1.000
    N27      N        0.86520    0.34004    0.20208    1.000
    N28      N        0.93040    0.13258    0.08311    1.000
    N29      N        0.92660    0.09679    0.01201    1.000
    N30      N        0.88710    0.12547    0.93583    1.000
    N31      N        0.86580    0.18099    0.95622    1.000
    N32      N        0.64790    0.08144    0.79818    1.000
    N33      N        0.23880    0.04084    0.90770    1.000
    N34      N        0.11880    0.04101    0.89517    1.000
    N35      N        0.07980    0.06808    0.81757    1.000
    N36      N        0.17540    0.08596    0.77706    1.000
    N37      N        0.85730    0.99138    0.87474    1.000
    N38      N        0.78100    0.95485    0.86530    1.000
    N39      N        0.70690    0.91990    0.85660    1.000
    Cd4      Cd       0.13925    0.57545    0.71106    1.000
    C37      C        0.10570    0.78857    0.25730    1.000
    H25      H        0.09080    0.78750    0.19360    1.000
    C38      C        0.09670    0.73700    0.30530    1.000
    H26      H        0.07670    0.70200    0.27430    1.000
    C39      C        0.11760    0.73790    0.40013    1.000
    C40      C        0.15000    0.79089    0.44210    1.000
    H27      H        0.16660    0.79310    0.50560    1.000
    C41      C        0.15740    0.84032    0.38900    1.000
    H28      H        0.17920    0.87570    0.41820    1.000
    C42      C        0.10720    0.68402    0.45316    1.000
    C43      C        0.39030    0.56745    0.62040    1.000
    H29      H        0.33190    0.55970    0.57090    1.000
    C44      C        0.51010    0.56404    0.60720    1.000
    H30      H        0.53170    0.55370    0.54990    1.000
    C45      C        0.60020    0.57602    0.67960    1.000
    C46      C        0.56200    0.59284    0.76170    1.000
    H31      H        0.61870    0.60310    0.81110    1.000
    C47      C        0.43850    0.59440    0.77040    1.000
    H32      H        0.41460    0.60500    0.82680    1.000
    C48      C        0.72840    0.56833    0.66536    1.000
    N40      N        0.13480    0.84004    0.29792    1.000
    N41      N        0.06960    0.63258    0.41689    1.000
    N42      N        0.07340    0.59679    0.48799    1.000
    N43      N        0.11290    0.62547    0.56417    1.000
    N44      N        0.13420    0.68099    0.54378    1.000
    N45      N        0.35210    0.58144    0.70182    1.000
    N46      N        0.76120    0.54084    0.59230    1.000
    N47      N        0.88120    0.54101    0.60483    1.000
    N48      N        0.92020    0.56808    0.68243    1.000
    N49      N        0.82460    0.58596    0.72294    1.000
    N50      N        0.14270    0.49138    0.62526    1.000
    N51      N        0.21900    0.45485    0.63470    1.000
    N52      N        0.29310    0.41990    0.64340    1.000
    Cd5      Cd       0.00000    0.00000    0.00000    1.000
    Cd6      Cd       0.00000    0.50000    0.50000    1.000
