# CIF file generated by openbabel 3.1.0, see https://openbabel.org
data_I
_chemical_name_common 'image0'
_cell_length_a 17.2841
_cell_length_b 17.2841
_cell_length_c 20.9702
_cell_angle_alpha 90
_cell_angle_beta 90
_cell_angle_gamma 90
_space_group_name_H-M_alt 'P 1'
_space_group_name_Hall 'P 1'
loop_
    _symmetry_equiv_pos_as_xyz
    x,y,z
loop_
    _atom_site_label
    _atom_site_type_symbol
    _atom_site_fract_x
    _atom_site_fract_y
    _atom_site_fract_z
    _atom_site_occupancy
    Cd1      Cd       0.19721    0.75560    0.00234    1.000
    N1       N        0.79120    0.63180    0.94370    1.000
    N2       N        0.65550    0.30980    0.77420    1.000
    N3       N        0.13720    0.17010    0.08540    1.000
    N4       N        0.83000    0.38160    0.21880    1.000
    O1       O        0.80170    0.69820    0.84950    1.000
    O2       O        0.79730    0.55870    0.03080    1.000
    O3       O        0.66030    0.23770    0.86480    1.000
    O4       O        0.64430    0.38200    0.68550    1.000
    O5       O        0.07330    0.15880    0.99410    1.000
    O6       O        0.20100    0.17720    0.17950    1.000
    O7       O        0.75870    0.36640    0.12790    1.000
    O8       O        0.90230    0.40420    0.30490    1.000
    C1       C        0.90560    0.70730    0.98270    1.000
    C2       C        0.94190    0.76100    0.02690    1.000
    H1       H        0.91010    0.78640    0.05590    1.000
    C3       C        0.01690    0.77620    0.02880    1.000
    H2       H        0.03590    0.81480    0.05550    1.000
    N5       N        0.06540    0.73500    0.99150    1.000
    C4       C        0.03940    0.68490    0.95710    1.000
    H3       H        0.07550    0.65510    0.93530    1.000
    C5       C        0.95700    0.66580    0.94600    1.000
    H4       H        0.94120    0.62880    0.91650    1.000
    C6       C        0.81790    0.69930    0.97870    1.000
    H5       H        0.79720    0.69710    0.02160    1.000
    H6       H        0.79720    0.74530    0.95840    1.000
    C7       C        0.78530    0.63870    0.87790    1.000
    C8       C        0.75660    0.56970    0.84150    1.000
    C9       C        0.74330    0.57220    0.77520    1.000
    H7       H        0.75300    0.61800    0.75340    1.000
    C10      C        0.71720    0.51130    0.74240    1.000
    H8       H        0.71030    0.51420    0.69850    1.000
    C11      C        0.70050    0.44330    0.77560    1.000
    C12      C        0.66470    0.37580    0.74130    1.000
    C13      C        0.67170    0.29980    0.83550    1.000
    C14      C        0.70130    0.36920    0.87240    1.000
    C15      C        0.71950    0.36380    0.93350    1.000
    H9       H        0.71500    0.31570    0.95300    1.000
    C16      C        0.74450    0.42490    0.96970    1.000
    H10      H        0.75420    0.41900    0.01310    1.000
    C17      C        0.75500    0.49540    0.94030    1.000
    C18      C        0.78260    0.56640    0.97340    1.000
    C19      C        0.74010    0.50250    0.87510    1.000
    C20      C        0.71370    0.43410    0.84040    1.000
    C21      C        0.62690    0.24440    0.73860    1.000
    H11      H        0.65060    0.19740    0.75470    1.000
    H12      H        0.64160    0.25000    0.69410    1.000
    C22      C        0.53850    0.23740    0.74330    1.000
    C23      C        0.50210    0.19810    0.70110    1.000
    H13      H        0.53180    0.17390    0.66990    1.000
    C24      C        0.42400    0.18840    0.69770    1.000
    H14      H        0.40290    0.16090    0.66380    1.000
    N6       N        0.37750    0.21770    0.74190    1.000
    C25      C        0.40570    0.26450    0.78860    1.000
    H15      H        0.37580    0.28800    0.82000    1.000
    C26      C        0.48790    0.27260    0.78280    1.000
    H16      H        0.50990    0.30800    0.81080    1.000
    C27      C        0.20060    0.04730    0.04390    1.000
    C28      C        0.22410    0.01750    0.99110    1.000
    H17      H        0.24120    0.04950    0.95830    1.000
    C29      C        0.22390    0.93780    0.98260    1.000
    H18      H        0.24600    0.91740    0.94580    1.000
    N7       N        0.19200    0.88740    0.02700    1.000
    C30      C        0.17030    0.92140    0.07850    1.000
    H19      H        0.15150    0.89050    0.11140    1.000
    C31      C        0.17250    0.00060    0.08890    1.000
    H20      H        0.15450    0.02110    0.12710    1.000
    C32      C        0.20330    0.13600    0.05340    1.000
    H21      H        0.24940    0.14860    0.07770    1.000
    H22      H        0.20860    0.16020    0.01180    1.000
    C33      C        0.07320    0.18340    0.04860    1.000
    C34      C        0.00660    0.22780    0.07510    1.000
    C35      C        0.94080    0.23740    0.03800    1.000
    H23      H        0.93600    0.21660    0.99730    1.000
    C36      C        0.88040    0.28230    0.06780    1.000
    H24      H        0.83620    0.29340    0.04420    1.000
    C37      C        0.88480    0.30870    0.12740    1.000
    C38      C        0.82090    0.35610    0.15800    1.000
    C39      C        0.89600    0.37200    0.25280    1.000
    C40      C        0.95960    0.32630    0.22540    1.000
    C41      C        0.02570    0.31130    0.26310    1.000
    H25      H        0.02860    0.33020    0.30460    1.000
    C42      C        0.08650    0.26810    0.23780    1.000
    H26      H        0.13050    0.25800    0.26200    1.000
    C43      C        0.08010    0.24060    0.17620    1.000
    C44      C        0.14430    0.19220    0.14860    1.000
    C45      C        0.01530    0.25420    0.13950    1.000
    C46      C        0.95210    0.29800    0.16430    1.000
    C47      C        0.76470    0.41840    0.24960    1.000
    H27      H        0.76460    0.40470    0.29440    1.000
    H28      H        0.71720    0.39890    0.23080    1.000
    C48      C        0.76610    0.50850    0.24320    1.000
    C49      C        0.78740    0.54720    0.19530    1.000
    H29      H        0.80430    0.52310    0.15820    1.000
    C50      C        0.78470    0.62240    0.20010    1.000
    H30      H        0.79860    0.64870    0.16320    1.000
    N8       N        0.76690    0.66460    0.24510    1.000
    C51      C        0.73240    0.62840    0.29670    1.000
    C52      C        0.73210    0.54790    0.29310    1.000
    H31      H        0.70810    0.51990    0.32530    1.000
    C53      C        0.49800    0.28440    0.70950    1.000
    C54      C        0.42090    0.28480    0.70170    1.000
    C55      C        0.43530    0.17400    0.77150    1.000
    C56      C        0.51870    0.18390    0.76940    1.000
    C57      C        0.74650    0.55050    0.19550    1.000
    C58      C        0.74780    0.62620    0.19070    1.000
    C59      C        0.79730    0.63470    0.28950    1.000
    C60      C        0.79910    0.55370    0.29490    1.000
    Cd2      Cd       0.80279    0.24440    0.50234    1.000
    N9       N        0.20880    0.36820    0.44370    1.000
    N10      N        0.34450    0.69020    0.27420    1.000
    N11      N        0.86280    0.82990    0.58540    1.000
    N12      N        0.17000    0.61840    0.71880    1.000
    O9       O        0.19830    0.30180    0.34950    1.000
    O10      O        0.20270    0.44130    0.53080    1.000
    O11      O        0.33970    0.76230    0.36480    1.000
    O12      O        0.35570    0.61800    0.18550    1.000
    O13      O        0.92670    0.84120    0.49410    1.000
    O14      O        0.79900    0.82280    0.67950    1.000
    O15      O        0.24130    0.63360    0.62790    1.000
    O16      O        0.09770    0.59580    0.80490    1.000
    C61      C        0.09440    0.29270    0.48270    1.000
    C62      C        0.05810    0.23900    0.52690    1.000
    H32      H        0.08990    0.21360    0.55590    1.000
    C63      C        0.98310    0.22380    0.52880    1.000
    H33      H        0.96410    0.18520    0.55550    1.000
    N13      N        0.93460    0.26500    0.49150    1.000
    C64      C        0.96060    0.31510    0.45710    1.000
    H34      H        0.92450    0.34490    0.43530    1.000
    C65      C        0.04300    0.33420    0.44600    1.000
    H35      H        0.05880    0.37120    0.41650    1.000
    C66      C        0.18210    0.30070    0.47870    1.000
    H36      H        0.20280    0.30290    0.52160    1.000
    H37      H        0.20280    0.25470    0.45840    1.000
    C67      C        0.21470    0.36130    0.37790    1.000
    C68      C        0.24340    0.43030    0.34150    1.000
    C69      C        0.25670    0.42780    0.27520    1.000
    H38      H        0.24700    0.38200    0.25340    1.000
    C70      C        0.28280    0.48870    0.24240    1.000
    H39      H        0.28970    0.48580    0.19850    1.000
    C71      C        0.29950    0.55670    0.27560    1.000
    C72      C        0.33530    0.62420    0.24130    1.000
    C73      C        0.32830    0.70020    0.33550    1.000
    C74      C        0.29870    0.63080    0.37240    1.000
    C75      C        0.28050    0.63620    0.43350    1.000
    H40      H        0.28500    0.68430    0.45300    1.000
    C76      C        0.25550    0.57510    0.46970    1.000
    H41      H        0.24580    0.58100    0.51310    1.000
    C77      C        0.24500    0.50460    0.44030    1.000
    C78      C        0.21740    0.43360    0.47340    1.000
    C79      C        0.25990    0.49750    0.37510    1.000
    C80      C        0.28630    0.56590    0.34040    1.000
    C81      C        0.37310    0.75560    0.23860    1.000
    H42      H        0.34940    0.80260    0.25470    1.000
    H43      H        0.35840    0.75000    0.19410    1.000
    C82      C        0.46150    0.76260    0.24330    1.000
    C83      C        0.49790    0.80190    0.20110    1.000
    H44      H        0.46820    0.82610    0.16990    1.000
    C84      C        0.57600    0.81160    0.19770    1.000
    H45      H        0.59710    0.83910    0.16380    1.000
    N14      N        0.62250    0.78230    0.24190    1.000
    C85      C        0.59430    0.73550    0.28860    1.000
    H46      H        0.62420    0.71200    0.32000    1.000
    C86      C        0.51210    0.72740    0.28280    1.000
    H47      H        0.49010    0.69200    0.31080    1.000
    C87      C        0.79940    0.95270    0.54390    1.000
    C88      C        0.77590    0.98250    0.49110    1.000
    H48      H        0.75880    0.95050    0.45830    1.000
    C89      C        0.77610    0.06220    0.48260    1.000
    H49      H        0.75400    0.08260    0.44580    1.000
    N15      N        0.80800    0.11260    0.52700    1.000
    C90      C        0.82970    0.07860    0.57850    1.000
    H50      H        0.84850    0.10950    0.61140    1.000
    C91      C        0.82750    0.99940    0.58890    1.000
    H51      H        0.84550    0.97890    0.62710    1.000
    C92      C        0.79670    0.86400    0.55340    1.000
    H52      H        0.75060    0.85140    0.57770    1.000
    H53      H        0.79140    0.83980    0.51180    1.000
    C93      C        0.92680    0.81660    0.54860    1.000
    C94      C        0.99340    0.77220    0.57510    1.000
    C95      C        0.05920    0.76260    0.53800    1.000
    H54      H        0.06400    0.78340    0.49730    1.000
    C96      C        0.11960    0.71770    0.56780    1.000
    H55      H        0.16380    0.70660    0.54420    1.000
    C97      C        0.11520    0.69130    0.62740    1.000
    C98      C        0.17910    0.64390    0.65800    1.000
    C99      C        0.10400    0.62800    0.75280    1.000
    C100     C        0.04040    0.67370    0.72540    1.000
    C101     C        0.97430    0.68870    0.76310    1.000
    H56      H        0.97140    0.66980    0.80460    1.000
    C102     C        0.91350    0.73190    0.73780    1.000
    H57      H        0.86950    0.74200    0.76200    1.000
    C103     C        0.91990    0.75940    0.67620    1.000
    C104     C        0.85570    0.80780    0.64860    1.000
    C105     C        0.98470    0.74580    0.63950    1.000
    C106     C        0.04790    0.70200    0.66430    1.000
    C107     C        0.23530    0.58160    0.74960    1.000
    H58      H        0.23540    0.59530    0.79440    1.000
    H59      H        0.28280    0.60110    0.73080    1.000
    C108     C        0.23390    0.49150    0.74320    1.000
    C109     C        0.21260    0.45280    0.69530    1.000
    H60      H        0.19570    0.47690    0.65820    1.000
    C110     C        0.21530    0.37760    0.70010    1.000
    H61      H        0.20140    0.35130    0.66320    1.000
    N16      N        0.23310    0.33540    0.74510    1.000
    C111     C        0.26760    0.37160    0.79670    1.000
    C112     C        0.26790    0.45210    0.79310    1.000
    H62      H        0.29190    0.48010    0.82530    1.000
    C113     C        0.50200    0.71560    0.20950    1.000
    C114     C        0.57910    0.71520    0.20170    1.000
    C115     C        0.56470    0.82600    0.27150    1.000
    C116     C        0.48130    0.81610    0.26940    1.000
    C117     C        0.25350    0.44950    0.69550    1.000
    C118     C        0.25220    0.37380    0.69070    1.000
    C119     C        0.20270    0.36530    0.78950    1.000
    C120     C        0.20090    0.44630    0.79490    1.000
    Cd3      Cd       0.24440    0.19721    0.75234    1.000
    N17      N        0.36820    0.79120    0.69370    1.000
    N18      N        0.69020    0.65550    0.52420    1.000
    N19      N        0.82990    0.13720    0.83540    1.000
    N20      N        0.61840    0.83000    0.96880    1.000
    O17      O        0.30180    0.80170    0.59950    1.000
    O18      O        0.44130    0.79730    0.78080    1.000
    O19      O        0.76230    0.66030    0.61480    1.000
    O20      O        0.61800    0.64430    0.43550    1.000
    O21      O        0.84120    0.07330    0.74410    1.000
    O22      O        0.82280    0.20100    0.92950    1.000
    O23      O        0.63360    0.75870    0.87790    1.000
    O24      O        0.59580    0.90230    0.05490    1.000
    C121     C        0.29270    0.90560    0.73270    1.000
    C122     C        0.23900    0.94190    0.77690    1.000
    H63      H        0.21360    0.91010    0.80590    1.000
    C123     C        0.22380    0.01690    0.77880    1.000
    H64      H        0.18520    0.03590    0.80550    1.000
    N21      N        0.26500    0.06540    0.74150    1.000
    C124     C        0.31510    0.03940    0.70710    1.000
    H65      H        0.34490    0.07550    0.68530    1.000
    C125     C        0.33420    0.95700    0.69600    1.000
    H66      H        0.37120    0.94120    0.66650    1.000
    C126     C        0.30070    0.81790    0.72870    1.000
    H67      H        0.30290    0.79720    0.77160    1.000
    H68      H        0.25470    0.79720    0.70840    1.000
    C127     C        0.36130    0.78530    0.62790    1.000
    C128     C        0.43030    0.75660    0.59150    1.000
    C129     C        0.42780    0.74330    0.52520    1.000
    H69      H        0.38200    0.75300    0.50340    1.000
    C130     C        0.48870    0.71720    0.49240    1.000
    H70      H        0.48580    0.71030    0.44850    1.000
    C131     C        0.55670    0.70050    0.52560    1.000
    C132     C        0.62420    0.66470    0.49130    1.000
    C133     C        0.70020    0.67170    0.58550    1.000
    C134     C        0.63080    0.70130    0.62240    1.000
    C135     C        0.63620    0.71950    0.68350    1.000
    H71      H        0.68430    0.71500    0.70300    1.000
    C136     C        0.57510    0.74450    0.71970    1.000
    H72      H        0.58100    0.75420    0.76310    1.000
    C137     C        0.50460    0.75500    0.69030    1.000
    C138     C        0.43360    0.78260    0.72340    1.000
    C139     C        0.49750    0.74010    0.62510    1.000
    C140     C        0.56590    0.71370    0.59040    1.000
    C141     C        0.75560    0.62690    0.48860    1.000
    H73      H        0.80260    0.65060    0.50470    1.000
    H74      H        0.75000    0.64160    0.44410    1.000
    C142     C        0.76260    0.53850    0.49330    1.000
    C143     C        0.80190    0.50210    0.45110    1.000
    H75      H        0.82610    0.53180    0.41990    1.000
    C144     C        0.81160    0.42400    0.44770    1.000
    H76      H        0.83910    0.40290    0.41380    1.000
    N22      N        0.78230    0.37750    0.49190    1.000
    C145     C        0.73550    0.40570    0.53860    1.000
    H77      H        0.71200    0.37580    0.57000    1.000
    C146     C        0.72740    0.48790    0.53280    1.000
    H78      H        0.69200    0.50990    0.56080    1.000
    C147     C        0.95270    0.20060    0.79390    1.000
    C148     C        0.98250    0.22410    0.74110    1.000
    H79      H        0.95050    0.24120    0.70830    1.000
    C149     C        0.06220    0.22390    0.73260    1.000
    H80      H        0.08260    0.24600    0.69580    1.000
    N23      N        0.11260    0.19200    0.77700    1.000
    C150     C        0.07860    0.17030    0.82850    1.000
    H81      H        0.10950    0.15150    0.86140    1.000
    C151     C        0.99940    0.17250    0.83890    1.000
    H82      H        0.97890    0.15450    0.87710    1.000
    C152     C        0.86400    0.20330    0.80340    1.000
    H83      H        0.85140    0.24940    0.82770    1.000
    H84      H        0.83980    0.20860    0.76180    1.000
    C153     C        0.81660    0.07320    0.79860    1.000
    C154     C        0.77220    0.00660    0.82510    1.000
    C155     C        0.76260    0.94080    0.78800    1.000
    H85      H        0.78340    0.93600    0.74730    1.000
    C156     C        0.71770    0.88040    0.81780    1.000
    H86      H        0.70660    0.83620    0.79420    1.000
    C157     C        0.69130    0.88480    0.87740    1.000
    C158     C        0.64390    0.82090    0.90800    1.000
    C159     C        0.62800    0.89600    0.00280    1.000
    C160     C        0.67370    0.95960    0.97540    1.000
    C161     C        0.68870    0.02570    0.01310    1.000
    H87      H        0.66980    0.02860    0.05460    1.000
    C162     C        0.73190    0.08650    0.98780    1.000
    H88      H        0.74200    0.13050    0.01200    1.000
    C163     C        0.75940    0.08010    0.92620    1.000
    C164     C        0.80780    0.14430    0.89860    1.000
    C165     C        0.74580    0.01530    0.88950    1.000
    C166     C        0.70200    0.95210    0.91430    1.000
    C167     C        0.58160    0.76470    0.99960    1.000
    H89      H        0.59530    0.76460    0.04440    1.000
    H90      H        0.60110    0.71720    0.98080    1.000
    C168     C        0.49150    0.76610    0.99320    1.000
    C169     C        0.45280    0.78740    0.94530    1.000
    H91      H        0.47690    0.80430    0.90820    1.000
    C170     C        0.37760    0.78470    0.95010    1.000
    H92      H        0.35130    0.79860    0.91320    1.000
    N24      N        0.33540    0.76690    0.99510    1.000
    C171     C        0.37160    0.73240    0.04670    1.000
    C172     C        0.45210    0.73210    0.04310    1.000
    H93      H        0.48010    0.70810    0.07530    1.000
    C173     C        0.71560    0.49800    0.45950    1.000
    C174     C        0.71520    0.42090    0.45170    1.000
    C175     C        0.82600    0.43530    0.52150    1.000
    C176     C        0.81610    0.51870    0.51940    1.000
    C177     C        0.44950    0.74650    0.94550    1.000
    C178     C        0.37380    0.74780    0.94070    1.000
    C179     C        0.36530    0.79730    0.03950    1.000
    C180     C        0.44630    0.79910    0.04490    1.000
    Cd4      Cd       0.75560    0.80279    0.25234    1.000
    N25      N        0.63180    0.20880    0.19370    1.000
    N26      N        0.30980    0.34450    0.02420    1.000
    N27      N        0.17010    0.86280    0.33540    1.000
    N28      N        0.38160    0.17000    0.46880    1.000
    O25      O        0.69820    0.19830    0.09950    1.000
    O26      O        0.55870    0.20270    0.28080    1.000
    O27      O        0.23770    0.33970    0.11480    1.000
    O28      O        0.38200    0.35570    0.93550    1.000
    O29      O        0.15880    0.92670    0.24410    1.000
    O30      O        0.17720    0.79900    0.42950    1.000
    O31      O        0.36640    0.24130    0.37790    1.000
    O32      O        0.40420    0.09770    0.55490    1.000
    C181     C        0.70730    0.09440    0.23270    1.000
    C182     C        0.76100    0.05810    0.27690    1.000
    H94      H        0.78640    0.08990    0.30590    1.000
    C183     C        0.77620    0.98310    0.27880    1.000
    H95      H        0.81480    0.96410    0.30550    1.000
    N29      N        0.73500    0.93460    0.24150    1.000
    C184     C        0.68490    0.96060    0.20710    1.000
    H96      H        0.65510    0.92450    0.18530    1.000
    C185     C        0.66580    0.04300    0.19600    1.000
    H97      H        0.62880    0.05880    0.16650    1.000
    C186     C        0.69930    0.18210    0.22870    1.000
    H98      H        0.69710    0.20280    0.27160    1.000
    H99      H        0.74530    0.20280    0.20840    1.000
    C187     C        0.63870    0.21470    0.12790    1.000
    C188     C        0.56970    0.24340    0.09150    1.000
    C189     C        0.57220    0.25670    0.02520    1.000
    H100     H        0.61800    0.24700    0.00340    1.000
    C190     C        0.51130    0.28280    0.99240    1.000
    H101     H        0.51420    0.28970    0.94850    1.000
    C191     C        0.44330    0.29950    0.02560    1.000
    C192     C        0.37580    0.33530    0.99130    1.000
    C193     C        0.29980    0.32830    0.08550    1.000
    C194     C        0.36920    0.29870    0.12240    1.000
    C195     C        0.36380    0.28050    0.18350    1.000
    H102     H        0.31570    0.28500    0.20300    1.000
    C196     C        0.42490    0.25550    0.21970    1.000
    H103     H        0.41900    0.24580    0.26310    1.000
    C197     C        0.49540    0.24500    0.19030    1.000
    C198     C        0.56640    0.21740    0.22340    1.000
    C199     C        0.50250    0.25990    0.12510    1.000
    C200     C        0.43410    0.28630    0.09040    1.000
    C201     C        0.24440    0.37310    0.98860    1.000
    H104     H        0.19740    0.34940    0.00470    1.000
    H105     H        0.25000    0.35840    0.94410    1.000
    C202     C        0.23740    0.46150    0.99330    1.000
    C203     C        0.19810    0.49790    0.95110    1.000
    H106     H        0.17390    0.46820    0.91990    1.000
    C204     C        0.18840    0.57600    0.94770    1.000
    H107     H        0.16090    0.59710    0.91380    1.000
    N30      N        0.21770    0.62250    0.99190    1.000
    C205     C        0.26450    0.59430    0.03860    1.000
    H108     H        0.28800    0.62420    0.07000    1.000
    C206     C        0.27260    0.51210    0.03280    1.000
    H109     H        0.30800    0.49010    0.06080    1.000
    C207     C        0.04730    0.79940    0.29390    1.000
    C208     C        0.01750    0.77590    0.24110    1.000
    H110     H        0.04950    0.75880    0.20830    1.000
    C209     C        0.93780    0.77610    0.23260    1.000
    H111     H        0.91740    0.75400    0.19580    1.000
    N31      N        0.88740    0.80800    0.27700    1.000
    C210     C        0.92140    0.82970    0.32850    1.000
    H112     H        0.89050    0.84850    0.36140    1.000
    C211     C        0.00060    0.82750    0.33890    1.000
    H113     H        0.02110    0.84550    0.37710    1.000
    C212     C        0.13600    0.79670    0.30340    1.000
    H114     H        0.14860    0.75060    0.32770    1.000
    H115     H        0.16020    0.79140    0.26180    1.000
    C213     C        0.18340    0.92680    0.29860    1.000
    C214     C        0.22780    0.99340    0.32510    1.000
    C215     C        0.23740    0.05920    0.28800    1.000
    H116     H        0.21660    0.06400    0.24730    1.000
    C216     C        0.28230    0.11960    0.31780    1.000
    H117     H        0.29340    0.16380    0.29420    1.000
    C217     C        0.30870    0.11520    0.37740    1.000
    C218     C        0.35610    0.17910    0.40800    1.000
    C219     C        0.37200    0.10400    0.50280    1.000
    C220     C        0.32630    0.04040    0.47540    1.000
    C221     C        0.31130    0.97430    0.51310    1.000
    H118     H        0.33020    0.97140    0.55460    1.000
    C222     C        0.26810    0.91350    0.48780    1.000
    H119     H        0.25800    0.86950    0.51200    1.000
    C223     C        0.24060    0.91990    0.42620    1.000
    C224     C        0.19220    0.85570    0.39860    1.000
    C225     C        0.25420    0.98470    0.38950    1.000
    C226     C        0.29800    0.04790    0.41430    1.000
    C227     C        0.41840    0.23530    0.49960    1.000
    H120     H        0.40470    0.23540    0.54440    1.000
    H121     H        0.39890    0.28280    0.48080    1.000
    C228     C        0.50850    0.23390    0.49320    1.000
    C229     C        0.54720    0.21260    0.44530    1.000
    H122     H        0.52310    0.19570    0.40820    1.000
    C230     C        0.62240    0.21530    0.45010    1.000
    H123     H        0.64870    0.20140    0.41320    1.000
    N32      N        0.66460    0.23310    0.49510    1.000
    C231     C        0.62840    0.26760    0.54670    1.000
    C232     C        0.54790    0.26790    0.54310    1.000
    H124     H        0.51990    0.29190    0.57530    1.000
    C233     C        0.28440    0.50200    0.95950    1.000
    C234     C        0.28480    0.57910    0.95170    1.000
    C235     C        0.17400    0.56470    0.02150    1.000
    C236     C        0.18390    0.48130    0.01940    1.000
    C237     C        0.55050    0.25350    0.44550    1.000
    C238     C        0.62620    0.25220    0.44070    1.000
    C239     C        0.63470    0.20270    0.53950    1.000
    C240     C        0.55370    0.20090    0.54490    1.000
