# CIF file generated by openbabel 3.1.0, see https://openbabel.org
data_I
_chemical_name_common 'image0'
_cell_length_a 21.6461
_cell_length_b 11.5792
_cell_length_c 19.7016
_cell_angle_alpha 90
_cell_angle_beta 93.866
_cell_angle_gamma 90
_space_group_name_H-M_alt 'P 1'
_space_group_name_Hall 'P 1'
loop_
    _symmetry_equiv_pos_as_xyz
    x,y,z
loop_
    _atom_site_label
    _atom_site_type_symbol
    _atom_site_fract_x
    _atom_site_fract_y
    _atom_site_fract_z
    _atom_site_occupancy
    Co1      Co       0.15118    0.34623    0.68016    1.000
    Co2      Co       0.06187    0.19230    0.55659    1.000
    N1       N        0.38300    0.28550    0.45280    1.000
    H1       H        0.39580    0.29390    0.49580    1.000
    N2       N        0.78440    0.45700    0.63650    1.000
    H2       H        0.75420    0.47370    0.66270    1.000
    N3       N        0.17660    0.52420    0.69440    1.000
    N4       N        0.11360    0.05720    0.51390    1.000
    O1       O        0.19972    0.34000    0.59496    1.000
    O2       O        0.11704    0.31810    0.52230    1.000
    O3       O        0.14180    0.18240    0.28841    1.000
    O4       O        0.23155    0.20560    0.24488    1.000
    O5       O        0.41520    0.29000    0.34330    1.000
    O6       O        0.80415    0.40130    0.53060    1.000
    O7       O        0.00088    0.30720    0.59580    1.000
    O8       O        0.06293    0.40360    0.67065    1.000
    O9       O        0.96670    0.57920    0.86660    1.000
    O10      O        0.87912    0.67190    0.84627    1.000
    C1       C        0.17460    0.32070    0.53660    1.000
    C2       C        0.19830    0.20670    0.29500    1.000
    C3       C        0.21590    0.29650    0.47940    1.000
    C4       C        0.18920    0.26400    0.41640    1.000
    H3       H        0.14540    0.25840    0.40900    1.000
    C5       C        0.22720    0.23990    0.36400    1.000
    C6       C        0.29110    0.24680    0.37400    1.000
    H4       H        0.31640    0.23040    0.33770    1.000
    C7       C        0.31800    0.27790    0.43790    1.000
    C8       C        0.28010    0.30200    0.49040    1.000
    H5       H        0.29820    0.32240    0.53400    1.000
    C9       C        0.42710    0.28120    0.40780    1.000
    C10      C        0.49340    0.29670    0.43580    1.000
    C11      C        0.53890    0.26690    0.39160    1.000
    H6       H        0.52720    0.23620    0.34790    1.000
    C12      C        0.60060    0.28210    0.41160    1.000
    H7       H        0.63120    0.25850    0.38210    1.000
    C13      C        0.61910    0.33160    0.47430    1.000
    C14      C        0.68150    0.35300    0.49560    1.000
    H8       H        0.71270    0.33110    0.46650    1.000
    C15      C        0.69870    0.40420    0.55650    1.000
    C16      C        0.65280    0.43900    0.59790    1.000
    H9       H        0.66420    0.47530    0.64020    1.000
    C17      C        0.59190    0.42190    0.57910    1.000
    H10      H        0.56150    0.44850    0.60790    1.000
    C18      C        0.57270    0.36580    0.51770    1.000
    C19      C        0.50990    0.34760    0.49540    1.000
    H11      H        0.47850    0.37230    0.52350    1.000
    C20      C        0.76740    0.42090    0.57340    1.000
    C21      C        0.84550    0.47130    0.66580    1.000
    C22      C        0.89750    0.42100    0.63830    1.000
    H12      H        0.89300    0.37930    0.59670    1.000
    C23      C        0.95550    0.43260    0.67240    1.000
    C24      C        0.96260    0.49310    0.73330    1.000
    H13      H        0.00260    0.50080    0.75600    1.000
    C25      C        0.91170    0.54220    0.76100    1.000
    C26      C        0.85350    0.53290    0.72680    1.000
    H14      H        0.81880    0.56880    0.74510    1.000
    C27      C        0.01090    0.37520    0.64400    1.000
    C28      C        0.91980    0.60200    0.82790    1.000
    C29      C        0.19760    0.58950    0.64640    1.000
    H15      H        0.20570    0.55330    0.60460    1.000
    C30      C        0.20880    0.70550    0.65210    1.000
    H16      H        0.22040    0.74920    0.61410    1.000
    C31      C        0.20290    0.75710    0.71400    1.000
    H17      H        0.21780    0.83300    0.72340    1.000
    C32      C        0.17440    0.69390    0.76140    1.000
    H18      H        0.16270    0.72960    0.80210    1.000
    C33      C        0.16260    0.57870    0.75020    1.000
    H19      H        0.14340    0.53610    0.78430    1.000
    C34      C        0.08800    0.99340    0.46130    1.000
    H20      H        0.04720    0.01270    0.44410    1.000
    C35      C        0.11730    0.90220    0.43110    1.000
    H21      H        0.09730    0.85980    0.39460    1.000
    C36      C        0.17600    0.87580    0.45580    1.000
    H22      H        0.19710    0.81210    0.43770    1.000
    C37      C        0.20510    0.94280    0.50780    1.000
    H23      H        0.24700    0.93050    0.52370    1.000
    C38      C        0.16890    0.02830    0.53490    1.000
    H24      H        0.18690    0.06960    0.57290    1.000
    O11      O        0.41920    0.20900    0.35690    1.000
    Co3      Co       0.84882    0.84623    0.81984    1.000
    Co4      Co       0.93813    0.69230    0.94341    1.000
    N5       N        0.61700    0.78550    0.04720    1.000
    H25      H        0.60420    0.79390    0.00420    1.000
    N6       N        0.21560    0.95700    0.86350    1.000
    H26      H        0.24580    0.97370    0.83730    1.000
    N7       N        0.82340    0.02420    0.80560    1.000
    N8       N        0.88640    0.55720    0.98610    1.000
    O12      O        0.80028    0.84000    0.90504    1.000
    O13      O        0.88296    0.81810    0.97770    1.000
    O14      O        0.85820    0.68240    0.21159    1.000
    O15      O        0.76845    0.70560    0.25512    1.000
    O16      O        0.58480    0.79000    0.15670    1.000
    O17      O        0.19585    0.90130    0.96940    1.000
    O18      O        0.99912    0.80720    0.90420    1.000
    O19      O        0.93707    0.90360    0.82935    1.000
    O20      O        0.03330    0.07920    0.63340    1.000
    O21      O        0.12088    0.17190    0.65373    1.000
    C39      C        0.82540    0.82070    0.96340    1.000
    C40      C        0.80170    0.70670    0.20500    1.000
    C41      C        0.78410    0.79650    0.02060    1.000
    C42      C        0.81080    0.76400    0.08360    1.000
    H27      H        0.85460    0.75840    0.09100    1.000
    C43      C        0.77280    0.73990    0.13600    1.000
    C44      C        0.70890    0.74680    0.12600    1.000
    H28      H        0.68360    0.73040    0.16230    1.000
    C45      C        0.68200    0.77790    0.06210    1.000
    C46      C        0.71990    0.80200    0.00960    1.000
    H29      H        0.70180    0.82240    0.96600    1.000
    C47      C        0.57290    0.78120    0.09220    1.000
    C48      C        0.50660    0.79670    0.06420    1.000
    C49      C        0.46110    0.76690    0.10840    1.000
    H30      H        0.47280    0.73620    0.15210    1.000
    C50      C        0.39940    0.78210    0.08840    1.000
    H31      H        0.36880    0.75850    0.11790    1.000
    C51      C        0.38090    0.83160    0.02570    1.000
    C52      C        0.31850    0.85300    0.00440    1.000
    H32      H        0.28730    0.83110    0.03350    1.000
    C53      C        0.30130    0.90420    0.94350    1.000
    C54      C        0.34720    0.93900    0.90210    1.000
    H33      H        0.33580    0.97530    0.85980    1.000
    C55      C        0.40810    0.92190    0.92090    1.000
    H34      H        0.43850    0.94850    0.89210    1.000
    C56      C        0.42730    0.86580    0.98230    1.000
    C57      C        0.49010    0.84760    0.00460    1.000
    H35      H        0.52150    0.87230    0.97650    1.000
    C58      C        0.23260    0.92090    0.92660    1.000
    C59      C        0.15450    0.97130    0.83420    1.000
    C60      C        0.10250    0.92100    0.86170    1.000
    H36      H        0.10700    0.87930    0.90330    1.000
    C61      C        0.04450    0.93260    0.82760    1.000
    C62      C        0.03740    0.99310    0.76670    1.000
    H37      H        0.99740    0.00080    0.74400    1.000
    C63      C        0.08830    0.04220    0.73900    1.000
    C64      C        0.14650    0.03290    0.77320    1.000
    H38      H        0.18120    0.06880    0.75490    1.000
    C65      C        0.98910    0.87520    0.85600    1.000
    C66      C        0.08020    0.10200    0.67210    1.000
    C67      C        0.80240    0.08950    0.85360    1.000
    H39      H        0.79430    0.05330    0.89540    1.000
    C68      C        0.79120    0.20550    0.84790    1.000
    H40      H        0.77960    0.24920    0.88590    1.000
    C69      C        0.79710    0.25710    0.78600    1.000
    H41      H        0.78220    0.33300    0.77660    1.000
    C70      C        0.82560    0.19390    0.73860    1.000
    H42      H        0.83730    0.22960    0.69790    1.000
    C71      C        0.83740    0.07870    0.74980    1.000
    H43      H        0.85660    0.03610    0.71570    1.000
    C72      C        0.91200    0.49340    0.03870    1.000
    H44      H        0.95280    0.51270    0.05590    1.000
    C73      C        0.88270    0.40220    0.06890    1.000
    H45      H        0.90270    0.35980    0.10540    1.000
    C74      C        0.82400    0.37580    0.04420    1.000
    H46      H        0.80290    0.31210    0.06230    1.000
    C75      C        0.79490    0.44280    0.99220    1.000
    H47      H        0.75300    0.43050    0.97630    1.000
    C76      C        0.83110    0.52830    0.96510    1.000
    H48      H        0.81310    0.56960    0.92710    1.000
    O22      O        0.58080    0.70900    0.14310    1.000
    Co5      Co       0.84882    0.65377    0.31984    1.000
    Co6      Co       0.93813    0.80770    0.44341    1.000
    N9       N        0.61700    0.71450    0.54720    1.000
    H49      H        0.60420    0.70610    0.50420    1.000
    N10      N        0.21560    0.54300    0.36350    1.000
    H50      H        0.24580    0.52630    0.33730    1.000
    N11      N        0.82340    0.47580    0.30560    1.000
    N12      N        0.88640    0.94280    0.48610    1.000
    O23      O        0.80028    0.66000    0.40504    1.000
    O24      O        0.88296    0.68190    0.47770    1.000
    O25      O        0.85820    0.81760    0.71159    1.000
    O26      O        0.76845    0.79440    0.75512    1.000
    O27      O        0.58480    0.71000    0.65670    1.000
    O28      O        0.19585    0.59870    0.46940    1.000
    O29      O        0.99912    0.69280    0.40420    1.000
    O30      O        0.93707    0.59640    0.32935    1.000
    O31      O        0.03330    0.42080    0.13340    1.000
    O32      O        0.12088    0.32810    0.15373    1.000
    C77      C        0.82540    0.67930    0.46340    1.000
    C78      C        0.80170    0.79330    0.70500    1.000
    C79      C        0.78410    0.70350    0.52060    1.000
    C80      C        0.81080    0.73600    0.58360    1.000
    H51      H        0.85460    0.74160    0.59100    1.000
    C81      C        0.77280    0.76010    0.63600    1.000
    C82      C        0.70890    0.75320    0.62600    1.000
    H52      H        0.68360    0.76960    0.66230    1.000
    C83      C        0.68200    0.72210    0.56210    1.000
    C84      C        0.71990    0.69800    0.50960    1.000
    H53      H        0.70180    0.67760    0.46600    1.000
    C85      C        0.57290    0.71880    0.59220    1.000
    C86      C        0.50660    0.70330    0.56420    1.000
    C87      C        0.46110    0.73310    0.60840    1.000
    H54      H        0.47280    0.76380    0.65210    1.000
    C88      C        0.39940    0.71790    0.58840    1.000
    H55      H        0.36880    0.74150    0.61790    1.000
    C89      C        0.38090    0.66840    0.52570    1.000
    C90      C        0.31850    0.64700    0.50440    1.000
    H56      H        0.28730    0.66890    0.53350    1.000
    C91      C        0.30130    0.59580    0.44350    1.000
    C92      C        0.34720    0.56100    0.40210    1.000
    H57      H        0.33580    0.52470    0.35980    1.000
    C93      C        0.40810    0.57810    0.42090    1.000
    H58      H        0.43850    0.55150    0.39210    1.000
    C94      C        0.42730    0.63420    0.48230    1.000
    C95      C        0.49010    0.65240    0.50460    1.000
    H59      H        0.52150    0.62770    0.47650    1.000
    C96      C        0.23260    0.57910    0.42660    1.000
    C97      C        0.15450    0.52870    0.33420    1.000
    C98      C        0.10250    0.57900    0.36170    1.000
    H60      H        0.10700    0.62070    0.40330    1.000
    C99      C        0.04450    0.56740    0.32760    1.000
    C100     C        0.03740    0.50690    0.26670    1.000
    H61      H        0.99740    0.49920    0.24400    1.000
    C101     C        0.08830    0.45780    0.23900    1.000
    C102     C        0.14650    0.46710    0.27320    1.000
    H62      H        0.18120    0.43120    0.25490    1.000
    C103     C        0.98910    0.62480    0.35600    1.000
    C104     C        0.08020    0.39800    0.17210    1.000
    C105     C        0.80240    0.41050    0.35360    1.000
    H63      H        0.79430    0.44670    0.39540    1.000
    C106     C        0.79120    0.29450    0.34790    1.000
    H64      H        0.77960    0.25080    0.38590    1.000
    C107     C        0.79710    0.24290    0.28600    1.000
    H65      H        0.78220    0.16700    0.27660    1.000
    C108     C        0.82560    0.30610    0.23860    1.000
    H66      H        0.83730    0.27040    0.19790    1.000
    C109     C        0.83740    0.42130    0.24980    1.000
    H67      H        0.85660    0.46390    0.21570    1.000
    C110     C        0.91200    0.00660    0.53870    1.000
    H68      H        0.95280    0.98730    0.55590    1.000
    C111     C        0.88270    0.09780    0.56890    1.000
    H69      H        0.90270    0.14020    0.60540    1.000
    C112     C        0.82400    0.12420    0.54420    1.000
    H70      H        0.80290    0.18790    0.56230    1.000
    C113     C        0.79490    0.05720    0.49220    1.000
    H71      H        0.75300    0.06950    0.47630    1.000
    C114     C        0.83110    0.97170    0.46510    1.000
    H72      H        0.81310    0.93040    0.42710    1.000
    O33      O        0.58080    0.79100    0.64310    1.000
    Co7      Co       0.15118    0.15377    0.18016    1.000
    Co8      Co       0.06187    0.30770    0.05659    1.000
    N13      N        0.38300    0.21450    0.95280    1.000
    H73      H        0.39580    0.20610    0.99580    1.000
    N14      N        0.78440    0.04300    0.13650    1.000
    H74      H        0.75420    0.02630    0.16270    1.000
    N15      N        0.17660    0.97580    0.19440    1.000
    N16      N        0.11360    0.44280    0.01390    1.000
    O34      O        0.19972    0.16000    0.09496    1.000
    O35      O        0.11704    0.18190    0.02230    1.000
    O36      O        0.14180    0.31760    0.78841    1.000
    O37      O        0.23155    0.29440    0.74488    1.000
    O38      O        0.41520    0.21000    0.84330    1.000
    O39      O        0.80415    0.09870    0.03060    1.000
    O40      O        0.00088    0.19280    0.09580    1.000
    O41      O        0.06293    0.09640    0.17065    1.000
    O42      O        0.96670    0.92080    0.36660    1.000
    O43      O        0.87912    0.82810    0.34627    1.000
    C115     C        0.17460    0.17930    0.03660    1.000
    C116     C        0.19830    0.29330    0.79500    1.000
    C117     C        0.21590    0.20350    0.97940    1.000
    C118     C        0.18920    0.23600    0.91640    1.000
    H75      H        0.14540    0.24160    0.90900    1.000
    C119     C        0.22720    0.26010    0.86400    1.000
    C120     C        0.29110    0.25320    0.87400    1.000
    H76      H        0.31640    0.26960    0.83770    1.000
    C121     C        0.31800    0.22210    0.93790    1.000
    C122     C        0.28010    0.19800    0.99040    1.000
    H77      H        0.29820    0.17760    0.03400    1.000
    C123     C        0.42710    0.21880    0.90780    1.000
    C124     C        0.49340    0.20330    0.93580    1.000
    C125     C        0.53890    0.23310    0.89160    1.000
    H78      H        0.52720    0.26380    0.84790    1.000
    C126     C        0.60060    0.21790    0.91160    1.000
    H79      H        0.63120    0.24150    0.88210    1.000
    C127     C        0.61910    0.16840    0.97430    1.000
    C128     C        0.68150    0.14700    0.99560    1.000
    H80      H        0.71270    0.16890    0.96650    1.000
    C129     C        0.69870    0.09580    0.05650    1.000
    C130     C        0.65280    0.06100    0.09790    1.000
    H81      H        0.66420    0.02470    0.14020    1.000
    C131     C        0.59190    0.07810    0.07910    1.000
    H82      H        0.56150    0.05150    0.10790    1.000
    C132     C        0.57270    0.13420    0.01770    1.000
    C133     C        0.50990    0.15240    0.99540    1.000
    H83      H        0.47850    0.12770    0.02350    1.000
    C134     C        0.76740    0.07910    0.07340    1.000
    C135     C        0.84550    0.02870    0.16580    1.000
    C136     C        0.89750    0.07900    0.13830    1.000
    H84      H        0.89300    0.12070    0.09670    1.000
    C137     C        0.95550    0.06740    0.17240    1.000
    C138     C        0.96260    0.00690    0.23330    1.000
    H85      H        0.00260    0.99920    0.25600    1.000
    C139     C        0.91170    0.95780    0.26100    1.000
    C140     C        0.85350    0.96710    0.22680    1.000
    H86      H        0.81880    0.93120    0.24510    1.000
    C141     C        0.01090    0.12480    0.14400    1.000
    C142     C        0.91980    0.89800    0.32790    1.000
    C143     C        0.19760    0.91050    0.14640    1.000
    H87      H        0.20570    0.94670    0.10460    1.000
    C144     C        0.20880    0.79450    0.15210    1.000
    H88      H        0.22040    0.75080    0.11410    1.000
    C145     C        0.20290    0.74290    0.21400    1.000
    H89      H        0.21780    0.66700    0.22340    1.000
    C146     C        0.17440    0.80610    0.26140    1.000
    H90      H        0.16270    0.77040    0.30210    1.000
    C147     C        0.16260    0.92130    0.25020    1.000
    H91      H        0.14340    0.96390    0.28430    1.000
    C148     C        0.08800    0.50660    0.96130    1.000
    H92      H        0.04720    0.48730    0.94410    1.000
    C149     C        0.11730    0.59780    0.93110    1.000
    H93      H        0.09730    0.64020    0.89460    1.000
    C150     C        0.17600    0.62420    0.95580    1.000
    H94      H        0.19710    0.68790    0.93770    1.000
    C151     C        0.20510    0.55720    0.00780    1.000
    H95      H        0.24700    0.56950    0.02370    1.000
    C152     C        0.16890    0.47170    0.03490    1.000
    H96      H        0.18690    0.43040    0.07290    1.000
    O44      O        0.41920    0.29100    0.85690    1.000
