# CIF file generated by openbabel 3.1.0, see https://openbabel.org
data_I
_chemical_name_common 'image0'
_cell_length_a 37.011
_cell_length_b 8.5952
_cell_length_c 26.729
_cell_angle_alpha 90
_cell_angle_beta 129.231
_cell_angle_gamma 90
_space_group_name_H-M_alt 'P 1'
_space_group_name_Hall 'P 1'
loop_
    _symmetry_equiv_pos_as_xyz
    x,y,z
loop_
    _atom_site_label
    _atom_site_type_symbol
    _atom_site_fract_x
    _atom_site_fract_y
    _atom_site_fract_z
    _atom_site_occupancy
    C1       C        0.86414    0.66710    0.85498    1.000
    H1       H        0.84690    0.70960    0.81380    1.000
    C2       C        0.91078    0.63900    0.88788    1.000
    H2       H        0.92420    0.66120    0.86870    1.000
    C3       C        0.91534    0.54080    0.97300    1.000
    H3       H        0.93160    0.49510    0.01350    1.000
    C4       C        0.86827    0.57080    0.93703    1.000
    H4       H        0.85370    0.54370    0.95410    1.000
    C5       C        0.65562    0.67600    0.68743    1.000
    H5       H        0.66940    0.74080    0.67590    1.000
    C6       C        0.60796    0.65580    0.64480    1.000
    H6       H        0.59070    0.70790    0.60540    1.000
    C7       C        0.58485    0.56120    0.65823    1.000
    C8       C        0.61325    0.48910    0.71711    1.000
    H7       H        0.59990    0.42290    0.72890    1.000
    C9       C        0.66105    0.51100    0.75977    1.000
    H8       H        0.67870    0.46020    0.79940    1.000
    C10      C        0.53444    0.54170    0.61250    1.000
    H9       H        0.51880    0.62190    0.58250    1.000
    C11      C        0.50904    0.44010    0.60624    1.000
    H10      H        0.52460    0.35600    0.63410    1.000
    C12      C        0.45847    0.42770    0.56250    1.000
    C13      C        0.42932    0.52680    0.51138    1.000
    H11      H        0.44240    0.60660    0.50400    1.000
    C14      C        0.38125    0.51230    0.47044    1.000
    H12      H        0.36290    0.58540    0.43800    1.000
    C15      C        0.38787    0.30040    0.52830    1.000
    H13      H        0.37420    0.22510    0.53660    1.000
    C16      C        0.43565    0.31380    0.56919    1.000
    H14      H        0.45330    0.24280    0.60280    1.000
    Mn1      Mn       0.76283    0.62795    0.81378    1.000
    S1       S        0.83614    0.58718    0.67211    1.000
    O1       O        0.76326    0.61480    0.73236    1.000
    O2       O        0.74128    0.37080    0.70301    1.000
    O3       O        0.86062    0.50750    0.73236    1.000
    O4       O        0.85615    0.72390    0.66780    1.000
    O5       O        0.76696    0.59410    0.42944    1.000
    O6       O        0.76957    0.35310    0.40087    1.000
    N1       N        0.78576    0.63680    0.64889    1.000
    H15      H        0.77730    0.73270    0.64130    1.000
    N2       N        0.68279    0.60460    0.74529    1.000
    N3       N        0.36061    0.39340    0.47690    1.000
    N4       N        0.84270    0.63750    0.87831    1.000
    C17      C        0.75375    0.49870    0.69723    1.000
    C18      C        0.75434    0.51650    0.64087    1.000
    H16      H        0.72290    0.53990    0.60220    1.000
    H17      H        0.76310    0.41750    0.63400    1.000
    C19      C        0.82586    0.44830    0.61481    1.000
    C20      C        0.83517    0.29370    0.63080    1.000
    H18      H        0.84770    0.26020    0.67200    1.000
    C21      C        0.82561    0.18770    0.58440    1.000
    H19      H        0.83190    0.08260    0.59480    1.000
    C22      C        0.80671    0.23770    0.52288    1.000
    H20      H        0.80050    0.16640    0.49210    1.000
    C23      C        0.79702    0.39480    0.50722    1.000
    C24      C        0.80655    0.50100    0.55364    1.000
    H21      H        0.80000    0.60610    0.54360    1.000
    C25      C        0.77585    0.45250    0.44043    1.000
    C26      C        0.93799    0.57700    0.95020    1.000
    C27      C        0.98720    0.53930    0.98640    1.000
    H22      H        0.00070    0.62490    0.98270    1.000
    C28      C        0.15301    0.77790    0.21101    1.000
    C29      C        0.10533    0.79680    0.17371    1.000
    C30      C        0.08528    0.93700    0.16929    1.000
    C31      C        0.11666    0.05520    0.20486    1.000
    C32      C        0.16425    0.03480    0.24204    1.000
    C33      C        0.03513    0.95720    0.13012    1.000
    C34      C        0.00498    0.01150    0.07671    1.000
    C35      C        0.95590    0.04230    0.04354    1.000
    C36      C        0.92458    0.07830    0.97885    1.000
    C37      C        0.87800    0.10730    0.94725    1.000
    C38      C        0.89002    0.06730    0.04199    1.000
    C39      C        0.93666    0.03780    0.07373    1.000
    C40      C        0.35888    0.93550    0.35207    1.000
    C41      C        0.40537    0.96660    0.38532    1.000
    C42      C        0.42110    0.85190    0.47624    1.000
    C43      C        0.37386    0.82410    0.44013    1.000
    H23      H        0.16480    0.68100    0.21240    1.000
    H24      H        0.08600    0.71200    0.15070    1.000
    H25      H        0.10540    0.15290    0.20380    1.000
    H26      H        0.18400    0.11850    0.26540    1.000
    H27      H        0.02350    0.92070    0.15020    1.000
    H28      H        0.01490    0.03750    0.05340    1.000
    H29      H        0.93530    0.08330    0.95540    1.000
    H30      H        0.85840    0.12810    0.90320    1.000
    H31      H        0.87840    0.06090    0.06420    1.000
    H32      H        0.95590    0.01380    0.11750    1.000
    H33      H        0.33770    0.96700    0.30920    1.000
    H34      H        0.41510    0.01630    0.36480    1.000
    H35      H        0.44150    0.82080    0.51920    1.000
    H36      H        0.36340    0.77620    0.46010    1.000
    C44      C        0.36414    0.16710    0.85498    1.000
    H37      H        0.34690    0.20960    0.81380    1.000
    C45      C        0.41078    0.13900    0.88788    1.000
    H38      H        0.42420    0.16120    0.86870    1.000
    C46      C        0.41534    0.04080    0.97300    1.000
    H39      H        0.43160    0.99510    0.01350    1.000
    C47      C        0.36827    0.07080    0.93703    1.000
    H40      H        0.35370    0.04370    0.95410    1.000
    C48      C        0.15562    0.17600    0.68743    1.000
    H41      H        0.16940    0.24080    0.67590    1.000
    C49      C        0.10796    0.15580    0.64480    1.000
    H42      H        0.09070    0.20790    0.60540    1.000
    C50      C        0.08485    0.06120    0.65823    1.000
    C51      C        0.11325    0.98910    0.71711    1.000
    H43      H        0.09990    0.92290    0.72890    1.000
    C52      C        0.16105    0.01100    0.75977    1.000
    H44      H        0.17870    0.96020    0.79940    1.000
    C53      C        0.03444    0.04170    0.61250    1.000
    H45      H        0.01880    0.12190    0.58250    1.000
    C54      C        0.00904    0.94010    0.60624    1.000
    H46      H        0.02460    0.85600    0.63410    1.000
    C55      C        0.95847    0.92770    0.56250    1.000
    C56      C        0.92932    0.02680    0.51138    1.000
    H47      H        0.94240    0.10660    0.50400    1.000
    C57      C        0.88125    0.01230    0.47044    1.000
    H48      H        0.86290    0.08540    0.43800    1.000
    C58      C        0.88787    0.80040    0.52830    1.000
    H49      H        0.87420    0.72510    0.53660    1.000
    C59      C        0.93565    0.81380    0.56919    1.000
    H50      H        0.95330    0.74280    0.60280    1.000
    Mn2      Mn       0.26283    0.12795    0.81378    1.000
    S2       S        0.33614    0.08718    0.67211    1.000
    O7       O        0.26326    0.11480    0.73236    1.000
    O8       O        0.24128    0.87080    0.70301    1.000
    O9       O        0.36062    0.00750    0.73236    1.000
    O10      O        0.35615    0.22390    0.66780    1.000
    O11      O        0.26696    0.09410    0.42944    1.000
    O12      O        0.26957    0.85310    0.40087    1.000
    N5       N        0.28576    0.13680    0.64889    1.000
    H51      H        0.27730    0.23270    0.64130    1.000
    N6       N        0.18279    0.10460    0.74529    1.000
    N7       N        0.86061    0.89340    0.47690    1.000
    N8       N        0.34270    0.13750    0.87831    1.000
    C60      C        0.25375    0.99870    0.69723    1.000
    C61      C        0.25434    0.01650    0.64087    1.000
    H52      H        0.22290    0.03990    0.60220    1.000
    H53      H        0.26310    0.91750    0.63400    1.000
    C62      C        0.32586    0.94830    0.61481    1.000
    C63      C        0.33517    0.79370    0.63080    1.000
    H54      H        0.34770    0.76020    0.67200    1.000
    C64      C        0.32561    0.68770    0.58440    1.000
    H55      H        0.33190    0.58260    0.59480    1.000
    C65      C        0.30671    0.73770    0.52288    1.000
    H56      H        0.30050    0.66640    0.49210    1.000
    C66      C        0.29702    0.89480    0.50722    1.000
    C67      C        0.30655    0.00100    0.55364    1.000
    H57      H        0.30000    0.10610    0.54360    1.000
    C68      C        0.27585    0.95250    0.44043    1.000
    C69      C        0.43799    0.07700    0.95020    1.000
    C70      C        0.48720    0.03930    0.98640    1.000
    H58      H        0.50070    0.12490    0.98270    1.000
    C71      C        0.65301    0.27790    0.21101    1.000
    C72      C        0.60533    0.29680    0.17371    1.000
    C73      C        0.58528    0.43700    0.16929    1.000
    C74      C        0.61666    0.55520    0.20486    1.000
    C75      C        0.66425    0.53480    0.24204    1.000
    C76      C        0.53513    0.45720    0.13012    1.000
    C77      C        0.50498    0.51150    0.07671    1.000
    C78      C        0.45590    0.54230    0.04354    1.000
    C79      C        0.42458    0.57830    0.97885    1.000
    C80      C        0.37800    0.60730    0.94725    1.000
    C81      C        0.39002    0.56730    0.04199    1.000
    C82      C        0.43666    0.53780    0.07373    1.000
    C83      C        0.85888    0.43550    0.35207    1.000
    C84      C        0.90537    0.46660    0.38532    1.000
    C85      C        0.92110    0.35190    0.47624    1.000
    C86      C        0.87386    0.32410    0.44013    1.000
    H59      H        0.66480    0.18100    0.21240    1.000
    H60      H        0.58600    0.21200    0.15070    1.000
    H61      H        0.60540    0.65290    0.20380    1.000
    H62      H        0.68400    0.61850    0.26540    1.000
    H63      H        0.52350    0.42070    0.15020    1.000
    H64      H        0.51490    0.53750    0.05340    1.000
    H65      H        0.43530    0.58330    0.95540    1.000
    H66      H        0.35840    0.62810    0.90320    1.000
    H67      H        0.37840    0.56090    0.06420    1.000
    H68      H        0.45590    0.51380    0.11750    1.000
    H69      H        0.83770    0.46700    0.30920    1.000
    H70      H        0.91510    0.51630    0.36480    1.000
    H71      H        0.94150    0.32080    0.51920    1.000
    H72      H        0.86340    0.27620    0.46010    1.000
    C87      C        0.13586    0.66710    0.64502    1.000
    H73      H        0.15310    0.70960    0.68620    1.000
    C88      C        0.08922    0.63900    0.61212    1.000
    H74      H        0.07580    0.66120    0.63130    1.000
    C89      C        0.08466    0.54080    0.52700    1.000
    H75      H        0.06840    0.49510    0.48650    1.000
    C90      C        0.13173    0.57080    0.56297    1.000
    H76      H        0.14630    0.54370    0.54590    1.000
    C91      C        0.34438    0.67600    0.81257    1.000
    H77      H        0.33060    0.74080    0.82410    1.000
    C92      C        0.39204    0.65580    0.85520    1.000
    H78      H        0.40930    0.70790    0.89460    1.000
    C93      C        0.41515    0.56120    0.84177    1.000
    C94      C        0.38675    0.48910    0.78289    1.000
    H79      H        0.40010    0.42290    0.77110    1.000
    C95      C        0.33895    0.51100    0.74023    1.000
    H80      H        0.32130    0.46020    0.70060    1.000
    C96      C        0.46556    0.54170    0.88750    1.000
    H81      H        0.48120    0.62190    0.91750    1.000
    C97      C        0.49096    0.44010    0.89376    1.000
    H82      H        0.47540    0.35600    0.86590    1.000
    C98      C        0.54153    0.42770    0.93750    1.000
    C99      C        0.57068    0.52680    0.98862    1.000
    H83      H        0.55760    0.60660    0.99600    1.000
    C100     C        0.61875    0.51230    0.02956    1.000
    H84      H        0.63710    0.58540    0.06200    1.000
    C101     C        0.61213    0.30040    0.97170    1.000
    H85      H        0.62580    0.22510    0.96340    1.000
    C102     C        0.56435    0.31380    0.93081    1.000
    H86      H        0.54670    0.24280    0.89720    1.000
    Mn3      Mn       0.23717    0.62795    0.68622    1.000
    S3       S        0.16386    0.58718    0.82789    1.000
    O13      O        0.23674    0.61480    0.76764    1.000
    O14      O        0.25872    0.37080    0.79699    1.000
    O15      O        0.13938    0.50750    0.76764    1.000
    O16      O        0.14385    0.72390    0.83220    1.000
    O17      O        0.23304    0.59410    0.07056    1.000
    O18      O        0.23043    0.35310    0.09913    1.000
    N9       N        0.21424    0.63680    0.85111    1.000
    H87      H        0.22270    0.73270    0.85870    1.000
    N10      N        0.31721    0.60460    0.75471    1.000
    N11      N        0.63939    0.39340    0.02310    1.000
    N12      N        0.15730    0.63750    0.62169    1.000
    C103     C        0.24625    0.49870    0.80277    1.000
    C104     C        0.24566    0.51650    0.85913    1.000
    H88      H        0.27710    0.53990    0.89780    1.000
    H89      H        0.23690    0.41750    0.86600    1.000
    C105     C        0.17414    0.44830    0.88519    1.000
    C106     C        0.16483    0.29370    0.86920    1.000
    H90      H        0.15230    0.26020    0.82800    1.000
    C107     C        0.17439    0.18770    0.91560    1.000
    H91      H        0.16810    0.08260    0.90520    1.000
    C108     C        0.19329    0.23770    0.97712    1.000
    H92      H        0.19950    0.16640    0.00790    1.000
    C109     C        0.20298    0.39480    0.99278    1.000
    C110     C        0.19345    0.50100    0.94636    1.000
    H93      H        0.20000    0.60610    0.95640    1.000
    C111     C        0.22415    0.45250    0.05957    1.000
    C112     C        0.06201    0.57700    0.54980    1.000
    C113     C        0.01280    0.53930    0.51360    1.000
    H94      H        0.99930    0.62490    0.51730    1.000
    C114     C        0.84699    0.77790    0.28899    1.000
    C115     C        0.89467    0.79680    0.32629    1.000
    C116     C        0.91472    0.93700    0.33071    1.000
    C117     C        0.88334    0.05520    0.29514    1.000
    C118     C        0.83575    0.03480    0.25796    1.000
    C119     C        0.96487    0.95720    0.36988    1.000
    C120     C        0.99502    0.01150    0.42329    1.000
    C121     C        0.04410    0.04230    0.45646    1.000
    C122     C        0.07542    0.07830    0.52115    1.000
    C123     C        0.12200    0.10730    0.55275    1.000
    C124     C        0.10998    0.06730    0.45801    1.000
    C125     C        0.06334    0.03780    0.42627    1.000
    C126     C        0.64112    0.93550    0.14793    1.000
    C127     C        0.59463    0.96660    0.11468    1.000
    C128     C        0.57890    0.85190    0.02376    1.000
    C129     C        0.62614    0.82410    0.05987    1.000
    H95      H        0.83520    0.68100    0.28760    1.000
    H96      H        0.91400    0.71200    0.34930    1.000
    H97      H        0.89460    0.15290    0.29620    1.000
    H98      H        0.81600    0.11850    0.23460    1.000
    H99      H        0.97650    0.92070    0.34980    1.000
    H100     H        0.98510    0.03750    0.44660    1.000
    H101     H        0.06470    0.08330    0.54460    1.000
    H102     H        0.14160    0.12810    0.59680    1.000
    H103     H        0.12160    0.06090    0.43580    1.000
    H104     H        0.04410    0.01380    0.38250    1.000
    H105     H        0.66230    0.96700    0.19080    1.000
    H106     H        0.58490    0.01630    0.13520    1.000
    H107     H        0.55850    0.82080    0.98080    1.000
    H108     H        0.63660    0.77620    0.03990    1.000
    C130     C        0.63586    0.16710    0.64502    1.000
    H109     H        0.65310    0.20960    0.68620    1.000
    C131     C        0.58922    0.13900    0.61212    1.000
    H110     H        0.57580    0.16120    0.63130    1.000
    C132     C        0.58466    0.04080    0.52700    1.000
    H111     H        0.56840    0.99510    0.48650    1.000
    C133     C        0.63173    0.07080    0.56297    1.000
    H112     H        0.64630    0.04370    0.54590    1.000
    C134     C        0.84438    0.17600    0.81257    1.000
    H113     H        0.83060    0.24080    0.82410    1.000
    C135     C        0.89204    0.15580    0.85520    1.000
    H114     H        0.90930    0.20790    0.89460    1.000
    C136     C        0.91515    0.06120    0.84177    1.000
    C137     C        0.88675    0.98910    0.78289    1.000
    H115     H        0.90010    0.92290    0.77110    1.000
    C138     C        0.83895    0.01100    0.74023    1.000
    H116     H        0.82130    0.96020    0.70060    1.000
    C139     C        0.96556    0.04170    0.88750    1.000
    H117     H        0.98120    0.12190    0.91750    1.000
    C140     C        0.99096    0.94010    0.89376    1.000
    H118     H        0.97540    0.85600    0.86590    1.000
    C141     C        0.04153    0.92770    0.93750    1.000
    C142     C        0.07068    0.02680    0.98862    1.000
    H119     H        0.05760    0.10660    0.99600    1.000
    C143     C        0.11875    0.01230    0.02956    1.000
    H120     H        0.13710    0.08540    0.06200    1.000
    C144     C        0.11213    0.80040    0.97170    1.000
    H121     H        0.12580    0.72510    0.96340    1.000
    C145     C        0.06435    0.81380    0.93081    1.000
    H122     H        0.04670    0.74280    0.89720    1.000
    Mn4      Mn       0.73717    0.12795    0.68622    1.000
    S4       S        0.66386    0.08718    0.82789    1.000
    O19      O        0.73674    0.11480    0.76764    1.000
    O20      O        0.75872    0.87080    0.79699    1.000
    O21      O        0.63938    0.00750    0.76764    1.000
    O22      O        0.64385    0.22390    0.83220    1.000
    O23      O        0.73304    0.09410    0.07056    1.000
    O24      O        0.73043    0.85310    0.09913    1.000
    N13      N        0.71424    0.13680    0.85111    1.000
    H123     H        0.72270    0.23270    0.85870    1.000
    N14      N        0.81721    0.10460    0.75471    1.000
    N15      N        0.13939    0.89340    0.02310    1.000
    N16      N        0.65730    0.13750    0.62169    1.000
    C146     C        0.74625    0.99870    0.80277    1.000
    C147     C        0.74566    0.01650    0.85913    1.000
    H124     H        0.77710    0.03990    0.89780    1.000
    H125     H        0.73690    0.91750    0.86600    1.000
    C148     C        0.67414    0.94830    0.88519    1.000
    C149     C        0.66483    0.79370    0.86920    1.000
    H126     H        0.65230    0.76020    0.82800    1.000
    C150     C        0.67439    0.68770    0.91560    1.000
    H127     H        0.66810    0.58260    0.90520    1.000
    C151     C        0.69329    0.73770    0.97712    1.000
    H128     H        0.69950    0.66640    0.00790    1.000
    C152     C        0.70298    0.89480    0.99278    1.000
    C153     C        0.69345    0.00100    0.94636    1.000
    H129     H        0.70000    0.10610    0.95640    1.000
    C154     C        0.72415    0.95250    0.05957    1.000
    C155     C        0.56201    0.07700    0.54980    1.000
    C156     C        0.51280    0.03930    0.51360    1.000
    H130     H        0.49930    0.12490    0.51730    1.000
    C157     C        0.34699    0.27790    0.28899    1.000
    C158     C        0.39467    0.29680    0.32629    1.000
    C159     C        0.41472    0.43700    0.33071    1.000
    C160     C        0.38334    0.55520    0.29514    1.000
    C161     C        0.33575    0.53480    0.25796    1.000
    C162     C        0.46487    0.45720    0.36988    1.000
    C163     C        0.49502    0.51150    0.42329    1.000
    C164     C        0.54410    0.54230    0.45646    1.000
    C165     C        0.57542    0.57830    0.52115    1.000
    C166     C        0.62200    0.60730    0.55275    1.000
    C167     C        0.60998    0.56730    0.45801    1.000
    C168     C        0.56334    0.53780    0.42627    1.000
    C169     C        0.14112    0.43550    0.14793    1.000
    C170     C        0.09463    0.46660    0.11468    1.000
    C171     C        0.07890    0.35190    0.02376    1.000
    C172     C        0.12614    0.32410    0.05987    1.000
    H131     H        0.33520    0.18100    0.28760    1.000
    H132     H        0.41400    0.21200    0.34930    1.000
    H133     H        0.39460    0.65290    0.29620    1.000
    H134     H        0.31600    0.61850    0.23460    1.000
    H135     H        0.47650    0.42070    0.34980    1.000
    H136     H        0.48510    0.53750    0.44660    1.000
    H137     H        0.56470    0.58330    0.54460    1.000
    H138     H        0.64160    0.62810    0.59680    1.000
    H139     H        0.62160    0.56090    0.43580    1.000
    H140     H        0.54410    0.51380    0.38250    1.000
    H141     H        0.16230    0.46700    0.19080    1.000
    H142     H        0.08490    0.51630    0.13520    1.000
    H143     H        0.05850    0.32080    0.98080    1.000
    H144     H        0.13660    0.27620    0.03990    1.000
    C173     C        0.13586    0.33290    0.14502    1.000
    H145     H        0.15310    0.29040    0.18620    1.000
    C174     C        0.08922    0.36100    0.11212    1.000
    H146     H        0.07580    0.33880    0.13130    1.000
    C175     C        0.08466    0.45920    0.02700    1.000
    H147     H        0.06840    0.50490    0.98650    1.000
    C176     C        0.13173    0.42920    0.06297    1.000
    H148     H        0.14630    0.45630    0.04590    1.000
    C177     C        0.34438    0.32400    0.31257    1.000
    H149     H        0.33060    0.25920    0.32410    1.000
    C178     C        0.39204    0.34420    0.35520    1.000
    H150     H        0.40930    0.29210    0.39460    1.000
    C179     C        0.41515    0.43880    0.34177    1.000
    C180     C        0.38675    0.51090    0.28289    1.000
    H151     H        0.40010    0.57710    0.27110    1.000
    C181     C        0.33895    0.48900    0.24023    1.000
    H152     H        0.32130    0.53980    0.20060    1.000
    C182     C        0.46556    0.45830    0.38750    1.000
    H153     H        0.48120    0.37810    0.41750    1.000
    C183     C        0.49096    0.55990    0.39376    1.000
    H154     H        0.47540    0.64400    0.36590    1.000
    C184     C        0.54153    0.57230    0.43750    1.000
    C185     C        0.57068    0.47320    0.48862    1.000
    H155     H        0.55760    0.39340    0.49600    1.000
    C186     C        0.61875    0.48770    0.52956    1.000
    H156     H        0.63710    0.41460    0.56200    1.000
    C187     C        0.61213    0.69960    0.47170    1.000
    H157     H        0.62580    0.77490    0.46340    1.000
    C188     C        0.56435    0.68620    0.43081    1.000
    H158     H        0.54670    0.75720    0.39720    1.000
    Mn5      Mn       0.23717    0.37205    0.18622    1.000
    S5       S        0.16386    0.41282    0.32789    1.000
    O25      O        0.23674    0.38520    0.26764    1.000
    O26      O        0.25872    0.62920    0.29699    1.000
    O27      O        0.13938    0.49250    0.26764    1.000
    O28      O        0.14385    0.27610    0.33220    1.000
    O29      O        0.23304    0.40590    0.57056    1.000
    O30      O        0.23043    0.64690    0.59913    1.000
    N17      N        0.21424    0.36320    0.35111    1.000
    H159     H        0.22270    0.26730    0.35870    1.000
    N18      N        0.31721    0.39540    0.25471    1.000
    N19      N        0.63939    0.60660    0.52310    1.000
    N20      N        0.15730    0.36250    0.12169    1.000
    C189     C        0.24625    0.50130    0.30277    1.000
    C190     C        0.24566    0.48350    0.35913    1.000
    H160     H        0.27710    0.46010    0.39780    1.000
    H161     H        0.23690    0.58250    0.36600    1.000
    C191     C        0.17414    0.55170    0.38519    1.000
    C192     C        0.16483    0.70630    0.36920    1.000
    H162     H        0.15230    0.73980    0.32800    1.000
    C193     C        0.17439    0.81230    0.41560    1.000
    H163     H        0.16810    0.91740    0.40520    1.000
    C194     C        0.19329    0.76230    0.47712    1.000
    H164     H        0.19950    0.83360    0.50790    1.000
    C195     C        0.20298    0.60520    0.49278    1.000
    C196     C        0.19345    0.49900    0.44636    1.000
    H165     H        0.20000    0.39390    0.45640    1.000
    C197     C        0.22415    0.54750    0.55957    1.000
    C198     C        0.06201    0.42300    0.04980    1.000
    C199     C        0.01280    0.46070    0.01360    1.000
    H166     H        0.99930    0.37510    0.01730    1.000
    C200     C        0.84699    0.22210    0.78899    1.000
    C201     C        0.89467    0.20320    0.82629    1.000
    C202     C        0.91472    0.06300    0.83071    1.000
    C203     C        0.88334    0.94480    0.79514    1.000
    C204     C        0.83575    0.96520    0.75796    1.000
    C205     C        0.96487    0.04280    0.86988    1.000
    C206     C        0.99502    0.98850    0.92329    1.000
    C207     C        0.04410    0.95770    0.95646    1.000
    C208     C        0.07542    0.92170    0.02115    1.000
    C209     C        0.12200    0.89270    0.05275    1.000
    C210     C        0.10998    0.93270    0.95801    1.000
    C211     C        0.06334    0.96220    0.92627    1.000
    C212     C        0.64112    0.06450    0.64793    1.000
    C213     C        0.59463    0.03340    0.61468    1.000
    C214     C        0.57890    0.14810    0.52376    1.000
    C215     C        0.62614    0.17590    0.55987    1.000
    H167     H        0.83520    0.31900    0.78760    1.000
    H168     H        0.91400    0.28800    0.84930    1.000
    H169     H        0.89460    0.84710    0.79620    1.000
    H170     H        0.81600    0.88150    0.73460    1.000
    H171     H        0.97650    0.07930    0.84980    1.000
    H172     H        0.98510    0.96250    0.94660    1.000
    H173     H        0.06470    0.91670    0.04460    1.000
    H174     H        0.14160    0.87190    0.09680    1.000
    H175     H        0.12160    0.93910    0.93580    1.000
    H176     H        0.04410    0.98620    0.88250    1.000
    H177     H        0.66230    0.03300    0.69080    1.000
    H178     H        0.58490    0.98370    0.63520    1.000
    H179     H        0.55850    0.17920    0.48080    1.000
    H180     H        0.63660    0.22380    0.53990    1.000
    C216     C        0.63586    0.83290    0.14502    1.000
    H181     H        0.65310    0.79040    0.18620    1.000
    C217     C        0.58922    0.86100    0.11212    1.000
    H182     H        0.57580    0.83880    0.13130    1.000
    C218     C        0.58466    0.95920    0.02700    1.000
    H183     H        0.56840    0.00490    0.98650    1.000
    C219     C        0.63173    0.92920    0.06297    1.000
    H184     H        0.64630    0.95630    0.04590    1.000
    C220     C        0.84438    0.82400    0.31257    1.000
    H185     H        0.83060    0.75920    0.32410    1.000
    C221     C        0.89204    0.84420    0.35520    1.000
    H186     H        0.90930    0.79210    0.39460    1.000
    C222     C        0.91515    0.93880    0.34177    1.000
    C223     C        0.88675    0.01090    0.28289    1.000
    H187     H        0.90010    0.07710    0.27110    1.000
    C224     C        0.83895    0.98900    0.24023    1.000
    H188     H        0.82130    0.03980    0.20060    1.000
    C225     C        0.96556    0.95830    0.38750    1.000
    H189     H        0.98120    0.87810    0.41750    1.000
    C226     C        0.99096    0.05990    0.39376    1.000
    H190     H        0.97540    0.14400    0.36590    1.000
    C227     C        0.04153    0.07230    0.43750    1.000
    C228     C        0.07068    0.97320    0.48862    1.000
    H191     H        0.05760    0.89340    0.49600    1.000
    C229     C        0.11875    0.98770    0.52956    1.000
    H192     H        0.13710    0.91460    0.56200    1.000
    C230     C        0.11213    0.19960    0.47170    1.000
    H193     H        0.12580    0.27490    0.46340    1.000
    C231     C        0.06435    0.18620    0.43081    1.000
    H194     H        0.04670    0.25720    0.39720    1.000
    Mn6      Mn       0.73717    0.87205    0.18622    1.000
    S6       S        0.66386    0.91282    0.32789    1.000
    O31      O        0.73674    0.88520    0.26764    1.000
    O32      O        0.75872    0.12920    0.29699    1.000
    O33      O        0.63938    0.99250    0.26764    1.000
    O34      O        0.64385    0.77610    0.33220    1.000
    O35      O        0.73304    0.90590    0.57056    1.000
    O36      O        0.73043    0.14690    0.59913    1.000
    N21      N        0.71424    0.86320    0.35111    1.000
    H195     H        0.72270    0.76730    0.35870    1.000
    N22      N        0.81721    0.89540    0.25471    1.000
    N23      N        0.13939    0.10660    0.52310    1.000
    N24      N        0.65730    0.86250    0.12169    1.000
    C232     C        0.74625    0.00130    0.30277    1.000
    C233     C        0.74566    0.98350    0.35913    1.000
    H196     H        0.77710    0.96010    0.39780    1.000
    H197     H        0.73690    0.08250    0.36600    1.000
    C234     C        0.67414    0.05170    0.38519    1.000
    C235     C        0.66483    0.20630    0.36920    1.000
    H198     H        0.65230    0.23980    0.32800    1.000
    C236     C        0.67439    0.31230    0.41560    1.000
    H199     H        0.66810    0.41740    0.40520    1.000
    C237     C        0.69329    0.26230    0.47712    1.000
    H200     H        0.69950    0.33360    0.50790    1.000
    C238     C        0.70298    0.10520    0.49278    1.000
    C239     C        0.69345    0.99900    0.44636    1.000
    H201     H        0.70000    0.89390    0.45640    1.000
    C240     C        0.72415    0.04750    0.55957    1.000
    C241     C        0.56201    0.92300    0.04980    1.000
    C242     C        0.51280    0.96070    0.01360    1.000
    H202     H        0.49930    0.87510    0.01730    1.000
    C243     C        0.34699    0.72210    0.78899    1.000
    C244     C        0.39467    0.70320    0.82629    1.000
    C245     C        0.41472    0.56300    0.83071    1.000
    C246     C        0.38334    0.44480    0.79514    1.000
    C247     C        0.33575    0.46520    0.75796    1.000
    C248     C        0.46487    0.54280    0.86988    1.000
    C249     C        0.49502    0.48850    0.92329    1.000
    C250     C        0.54410    0.45770    0.95646    1.000
    C251     C        0.57542    0.42170    0.02115    1.000
    C252     C        0.62200    0.39270    0.05275    1.000
    C253     C        0.60998    0.43270    0.95801    1.000
    C254     C        0.56334    0.46220    0.92627    1.000
    C255     C        0.14112    0.56450    0.64793    1.000
    C256     C        0.09463    0.53340    0.61468    1.000
    C257     C        0.07890    0.64810    0.52376    1.000
    C258     C        0.12614    0.67590    0.55987    1.000
    H203     H        0.33520    0.81900    0.78760    1.000
    H204     H        0.41400    0.78800    0.84930    1.000
    H205     H        0.39460    0.34710    0.79620    1.000
    H206     H        0.31600    0.38150    0.73460    1.000
    H207     H        0.47650    0.57930    0.84980    1.000
    H208     H        0.48510    0.46250    0.94660    1.000
    H209     H        0.56470    0.41670    0.04460    1.000
    H210     H        0.64160    0.37190    0.09680    1.000
    H211     H        0.62160    0.43910    0.93580    1.000
    H212     H        0.54410    0.48620    0.88250    1.000
    H213     H        0.16230    0.53300    0.69080    1.000
    H214     H        0.08490    0.48370    0.63520    1.000
    H215     H        0.05850    0.67920    0.48080    1.000
    H216     H        0.13660    0.72380    0.53990    1.000
    C259     C        0.86414    0.33290    0.35498    1.000
    H217     H        0.84690    0.29040    0.31380    1.000
    C260     C        0.91078    0.36100    0.38788    1.000
    H218     H        0.92420    0.33880    0.36870    1.000
    C261     C        0.91534    0.45920    0.47300    1.000
    H219     H        0.93160    0.50490    0.51350    1.000
    C262     C        0.86827    0.42920    0.43703    1.000
    H220     H        0.85370    0.45630    0.45410    1.000
    C263     C        0.65562    0.32400    0.18743    1.000
    H221     H        0.66940    0.25920    0.17590    1.000
    C264     C        0.60796    0.34420    0.14480    1.000
    H222     H        0.59070    0.29210    0.10540    1.000
    C265     C        0.58485    0.43880    0.15823    1.000
    C266     C        0.61325    0.51090    0.21711    1.000
    H223     H        0.59990    0.57710    0.22890    1.000
    C267     C        0.66105    0.48900    0.25977    1.000
    H224     H        0.67870    0.53980    0.29940    1.000
    C268     C        0.53444    0.45830    0.11250    1.000
    H225     H        0.51880    0.37810    0.08250    1.000
    C269     C        0.50904    0.55990    0.10624    1.000
    H226     H        0.52460    0.64400    0.13410    1.000
    C270     C        0.45847    0.57230    0.06250    1.000
    C271     C        0.42932    0.47320    0.01138    1.000
    H227     H        0.44240    0.39340    0.00400    1.000
    C272     C        0.38125    0.48770    0.97044    1.000
    H228     H        0.36290    0.41460    0.93800    1.000
    C273     C        0.38787    0.69960    0.02830    1.000
    H229     H        0.37420    0.77490    0.03660    1.000
    C274     C        0.43565    0.68620    0.06919    1.000
    H230     H        0.45330    0.75720    0.10280    1.000
    Mn7      Mn       0.76283    0.37205    0.31378    1.000
    S7       S        0.83614    0.41282    0.17211    1.000
    O37      O        0.76326    0.38520    0.23236    1.000
    O38      O        0.74128    0.62920    0.20301    1.000
    O39      O        0.86062    0.49250    0.23236    1.000
    O40      O        0.85615    0.27610    0.16780    1.000
    O41      O        0.76696    0.40590    0.92944    1.000
    O42      O        0.76957    0.64690    0.90087    1.000
    N25      N        0.78576    0.36320    0.14889    1.000
    H231     H        0.77730    0.26730    0.14130    1.000
    N26      N        0.68279    0.39540    0.24529    1.000
    N27      N        0.36061    0.60660    0.97690    1.000
    N28      N        0.84270    0.36250    0.37831    1.000
    C275     C        0.75375    0.50130    0.19723    1.000
    C276     C        0.75434    0.48350    0.14087    1.000
    H232     H        0.72290    0.46010    0.10220    1.000
    H233     H        0.76310    0.58250    0.13400    1.000
    C277     C        0.82586    0.55170    0.11481    1.000
    C278     C        0.83517    0.70630    0.13080    1.000
    H234     H        0.84770    0.73980    0.17200    1.000
    C279     C        0.82561    0.81230    0.08440    1.000
    H235     H        0.83190    0.91740    0.09480    1.000
    C280     C        0.80671    0.76230    0.02288    1.000
    H236     H        0.80050    0.83360    0.99210    1.000
    C281     C        0.79702    0.60520    0.00722    1.000
    C282     C        0.80655    0.49900    0.05364    1.000
    H237     H        0.80000    0.39390    0.04360    1.000
    C283     C        0.77585    0.54750    0.94043    1.000
    C284     C        0.93799    0.42300    0.45020    1.000
    C285     C        0.98720    0.46070    0.48640    1.000
    H238     H        0.00070    0.37510    0.48270    1.000
    C286     C        0.15301    0.22210    0.71101    1.000
    C287     C        0.10533    0.20320    0.67371    1.000
    C288     C        0.08528    0.06300    0.66929    1.000
    C289     C        0.11666    0.94480    0.70486    1.000
    C290     C        0.16425    0.96520    0.74204    1.000
    C291     C        0.03513    0.04280    0.63012    1.000
    C292     C        0.00498    0.98850    0.57671    1.000
    C293     C        0.95590    0.95770    0.54354    1.000
    C294     C        0.92458    0.92170    0.47885    1.000
    C295     C        0.87800    0.89270    0.44725    1.000
    C296     C        0.89002    0.93270    0.54199    1.000
    C297     C        0.93666    0.96220    0.57373    1.000
    C298     C        0.35888    0.06450    0.85207    1.000
    C299     C        0.40537    0.03340    0.88532    1.000
    C300     C        0.42110    0.14810    0.97624    1.000
    C301     C        0.37386    0.17590    0.94013    1.000
    H239     H        0.16480    0.31900    0.71240    1.000
    H240     H        0.08600    0.28800    0.65070    1.000
    H241     H        0.10540    0.84710    0.70380    1.000
    H242     H        0.18400    0.88150    0.76540    1.000
    H243     H        0.02350    0.07930    0.65020    1.000
    H244     H        0.01490    0.96250    0.55340    1.000
    H245     H        0.93530    0.91670    0.45540    1.000
    H246     H        0.85840    0.87190    0.40320    1.000
    H247     H        0.87840    0.93910    0.56420    1.000
    H248     H        0.95590    0.98620    0.61750    1.000
    H249     H        0.33770    0.03300    0.80920    1.000
    H250     H        0.41510    0.98370    0.86480    1.000
    H251     H        0.44150    0.17920    0.01920    1.000
    H252     H        0.36340    0.22380    0.96010    1.000
    C302     C        0.36414    0.83290    0.35498    1.000
    H253     H        0.34690    0.79040    0.31380    1.000
    C303     C        0.41078    0.86100    0.38788    1.000
    H254     H        0.42420    0.83880    0.36870    1.000
    C304     C        0.41534    0.95920    0.47300    1.000
    H255     H        0.43160    0.00490    0.51350    1.000
    C305     C        0.36827    0.92920    0.43703    1.000
    H256     H        0.35370    0.95630    0.45410    1.000
    C306     C        0.15562    0.82400    0.18743    1.000
    H257     H        0.16940    0.75920    0.17590    1.000
    C307     C        0.10796    0.84420    0.14480    1.000
    H258     H        0.09070    0.79210    0.10540    1.000
    C308     C        0.08485    0.93880    0.15823    1.000
    C309     C        0.11325    0.01090    0.21711    1.000
    H259     H        0.09990    0.07710    0.22890    1.000
    C310     C        0.16105    0.98900    0.25977    1.000
    H260     H        0.17870    0.03980    0.29940    1.000
    C311     C        0.03444    0.95830    0.11250    1.000
    H261     H        0.01880    0.87810    0.08250    1.000
    C312     C        0.00904    0.05990    0.10624    1.000
    H262     H        0.02460    0.14400    0.13410    1.000
    C313     C        0.95847    0.07230    0.06250    1.000
    C314     C        0.92932    0.97320    0.01138    1.000
    H263     H        0.94240    0.89340    0.00400    1.000
    C315     C        0.88125    0.98770    0.97044    1.000
    H264     H        0.86290    0.91460    0.93800    1.000
    C316     C        0.88787    0.19960    0.02830    1.000
    H265     H        0.87420    0.27490    0.03660    1.000
    C317     C        0.93565    0.18620    0.06919    1.000
    H266     H        0.95330    0.25720    0.10280    1.000
    Mn8      Mn       0.26283    0.87205    0.31378    1.000
    S8       S        0.33614    0.91282    0.17211    1.000
    O43      O        0.26326    0.88520    0.23236    1.000
    O44      O        0.24128    0.12920    0.20301    1.000
    O45      O        0.36062    0.99250    0.23236    1.000
    O46      O        0.35615    0.77610    0.16780    1.000
    O47      O        0.26696    0.90590    0.92944    1.000
    O48      O        0.26957    0.14690    0.90087    1.000
    N29      N        0.28576    0.86320    0.14889    1.000
    H267     H        0.27730    0.76730    0.14130    1.000
    N30      N        0.18279    0.89540    0.24529    1.000
    N31      N        0.86061    0.10660    0.97690    1.000
    N32      N        0.34270    0.86250    0.37831    1.000
    C318     C        0.25375    0.00130    0.19723    1.000
    C319     C        0.25434    0.98350    0.14087    1.000
    H268     H        0.22290    0.96010    0.10220    1.000
    H269     H        0.26310    0.08250    0.13400    1.000
    C320     C        0.32586    0.05170    0.11481    1.000
    C321     C        0.33517    0.20630    0.13080    1.000
    H270     H        0.34770    0.23980    0.17200    1.000
    C322     C        0.32561    0.31230    0.08440    1.000
    H271     H        0.33190    0.41740    0.09480    1.000
    C323     C        0.30671    0.26230    0.02288    1.000
    H272     H        0.30050    0.33360    0.99210    1.000
    C324     C        0.29702    0.10520    0.00722    1.000
    C325     C        0.30655    0.99900    0.05364    1.000
    H273     H        0.30000    0.89390    0.04360    1.000
    C326     C        0.27585    0.04750    0.94043    1.000
    C327     C        0.43799    0.92300    0.45020    1.000
    C328     C        0.48720    0.96070    0.48640    1.000
    H274     H        0.50070    0.87510    0.48270    1.000
    C329     C        0.65301    0.72210    0.71101    1.000
    C330     C        0.60533    0.70320    0.67371    1.000
    C331     C        0.58528    0.56300    0.66929    1.000
    C332     C        0.61666    0.44480    0.70486    1.000
    C333     C        0.66425    0.46520    0.74204    1.000
    C334     C        0.53513    0.54280    0.63012    1.000
    C335     C        0.50498    0.48850    0.57671    1.000
    C336     C        0.45590    0.45770    0.54354    1.000
    C337     C        0.42458    0.42170    0.47885    1.000
    C338     C        0.37800    0.39270    0.44725    1.000
    C339     C        0.39002    0.43270    0.54199    1.000
    C340     C        0.43666    0.46220    0.57373    1.000
    C341     C        0.85888    0.56450    0.85207    1.000
    C342     C        0.90537    0.53340    0.88532    1.000
    C343     C        0.92110    0.64810    0.97624    1.000
    C344     C        0.87386    0.67590    0.94013    1.000
    H275     H        0.66480    0.81900    0.71240    1.000
    H276     H        0.58600    0.78800    0.65070    1.000
    H277     H        0.60540    0.34710    0.70380    1.000
    H278     H        0.68400    0.38150    0.76540    1.000
    H279     H        0.52350    0.57930    0.65020    1.000
    H280     H        0.51490    0.46250    0.55340    1.000
    H281     H        0.43530    0.41670    0.45540    1.000
    H282     H        0.35840    0.37190    0.40320    1.000
    H283     H        0.37840    0.43910    0.56420    1.000
    H284     H        0.45590    0.48620    0.61750    1.000
    H285     H        0.83770    0.53300    0.80920    1.000
    H286     H        0.91510    0.48370    0.86480    1.000
    H287     H        0.94150    0.67920    0.01920    1.000
    H288     H        0.86340    0.72380    0.96010    1.000
