# CIF file generated by openbabel 3.1.0, see https://openbabel.org
data_I
_chemical_name_common 'image0'
_cell_length_a 13.757
_cell_length_b 20.753
_cell_length_c 7.86
_cell_angle_alpha 90
_cell_angle_beta 91.66
_cell_angle_gamma 90
_space_group_name_H-M_alt 'P 1'
_space_group_name_Hall 'P 1'
loop_
    _symmetry_equiv_pos_as_xyz
    x,y,z
loop_
    _atom_site_label
    _atom_site_type_symbol
    _atom_site_fract_x
    _atom_site_fract_y
    _atom_site_fract_z
    _atom_site_occupancy
    Cu1      Cu       0.08405    0.51081    0.07707    1.000
    Cu2      Cu       0.50302    0.66455    0.53406    1.000
    O1       O        0.36576    0.66004    0.50560    1.000
    O2       O        0.32234    0.75572    0.39440    1.000
    O3       O        0.64339    0.82701    0.07630    1.000
    O4       O        0.60760    0.72383    0.03100    1.000
    O5       O        0.86247    0.56571    0.03340    1.000
    O6       O        0.12031    0.55995    0.87540    1.000
    O7       O        0.00871    0.58525    0.15240    1.000
    O8       O        0.97360    0.54508    0.75180    1.000
    C1       C        0.30370    0.70234    0.45510    1.000
    C2       C        0.19940    0.68166    0.47700    1.000
    C3       C        0.12520    0.70645    0.37110    1.000
    H1       H        0.14500    0.74000    0.28500    1.000
    C4       C        0.01170    0.63523    0.50320    1.000
    H2       H        0.95500    0.61810    0.50700    1.000
    C5       C        0.03040    0.68220    0.38340    1.000
    C6       C        0.94560    0.70602    0.27770    1.000
    C7       C        0.91750    0.76974    0.28980    1.000
    H3       H        0.95000    0.79740    0.34800    1.000
    C8       C        0.82910    0.79150    0.21930    1.000
    H4       H        0.81200    0.83160    0.23000    1.000
    C9       C        0.76570    0.74836    0.14080    1.000
    C10      C        0.79550    0.68540    0.12020    1.000
    H5       H        0.75400    0.65650    0.06430    1.000
    C11      C        0.88610    0.66386    0.18080    1.000
    C12      C        0.92140    0.59941    0.12150    1.000
    C13      C        0.05780    0.56863    0.75770    1.000
    C14      C        0.08390    0.61347    0.61710    1.000
    C15      C        0.17850    0.63583    0.59920    1.000
    H6       H        0.22700    0.62470    0.66200    1.000
    C16      C        0.66620    0.76720    0.07560    1.000
    Cu3      Cu       0.91595    0.01081    0.42293    1.000
    Cu4      Cu       0.49698    0.16455    0.96594    1.000
    O9       O        0.63424    0.16004    0.99440    1.000
    O10      O        0.67766    0.25572    0.10560    1.000
    O11      O        0.35661    0.32701    0.42370    1.000
    O12      O        0.39240    0.22383    0.46900    1.000
    O13      O        0.13753    0.06571    0.46660    1.000
    O14      O        0.87969    0.05995    0.62460    1.000
    O15      O        0.99129    0.08525    0.34760    1.000
    O16      O        0.02640    0.04508    0.74820    1.000
    C17      C        0.69630    0.20234    0.04490    1.000
    C18      C        0.80060    0.18166    0.02300    1.000
    C19      C        0.87480    0.20645    0.12890    1.000
    H7       H        0.85500    0.24000    0.21500    1.000
    C20      C        0.98830    0.13523    0.99680    1.000
    H8       H        0.04500    0.11810    0.99300    1.000
    C21      C        0.96960    0.18220    0.11660    1.000
    C22      C        0.05440    0.20602    0.22230    1.000
    C23      C        0.08250    0.26974    0.21020    1.000
    H9       H        0.05000    0.29740    0.15200    1.000
    C24      C        0.17090    0.29150    0.28070    1.000
    H10      H        0.18800    0.33160    0.27000    1.000
    C25      C        0.23430    0.24836    0.35920    1.000
    C26      C        0.20450    0.18540    0.37980    1.000
    H11      H        0.24600    0.15650    0.43570    1.000
    C27      C        0.11390    0.16386    0.31920    1.000
    C28      C        0.07860    0.09941    0.37850    1.000
    C29      C        0.94220    0.06863    0.74230    1.000
    C30      C        0.91610    0.11347    0.88290    1.000
    C31      C        0.82150    0.13583    0.90080    1.000
    H12      H        0.77300    0.12470    0.83800    1.000
    C32      C        0.33380    0.26720    0.42440    1.000
    Cu5      Cu       0.91595    0.48919    0.92293    1.000
    Cu6      Cu       0.49698    0.33545    0.46594    1.000
    O17      O        0.63424    0.33996    0.49440    1.000
    O18      O        0.67766    0.24428    0.60560    1.000
    O19      O        0.35661    0.17299    0.92370    1.000
    O20      O        0.39240    0.27617    0.96900    1.000
    O21      O        0.13753    0.43429    0.96660    1.000
    O22      O        0.87969    0.44005    0.12460    1.000
    O23      O        0.99129    0.41475    0.84760    1.000
    O24      O        0.02640    0.45492    0.24820    1.000
    C33      C        0.69630    0.29766    0.54490    1.000
    C34      C        0.80060    0.31834    0.52300    1.000
    C35      C        0.87480    0.29355    0.62890    1.000
    H13      H        0.85500    0.26000    0.71500    1.000
    C36      C        0.98830    0.36477    0.49680    1.000
    H14      H        0.04500    0.38190    0.49300    1.000
    C37      C        0.96960    0.31780    0.61660    1.000
    C38      C        0.05440    0.29398    0.72230    1.000
    C39      C        0.08250    0.23026    0.71020    1.000
    H15      H        0.05000    0.20260    0.65200    1.000
    C40      C        0.17090    0.20850    0.78070    1.000
    H16      H        0.18800    0.16840    0.77000    1.000
    C41      C        0.23430    0.25164    0.85920    1.000
    C42      C        0.20450    0.31460    0.87980    1.000
    H17      H        0.24600    0.34350    0.93570    1.000
    C43      C        0.11390    0.33614    0.81920    1.000
    C44      C        0.07860    0.40059    0.87850    1.000
    C45      C        0.94220    0.43137    0.24230    1.000
    C46      C        0.91610    0.38653    0.38290    1.000
    C47      C        0.82150    0.36417    0.40080    1.000
    H18      H        0.77300    0.37530    0.33800    1.000
    C48      C        0.33380    0.23280    0.92440    1.000
    Cu7      Cu       0.08405    0.98919    0.57707    1.000
    Cu8      Cu       0.50302    0.83545    0.03406    1.000
    O25      O        0.36576    0.83996    0.00560    1.000
    O26      O        0.32234    0.74428    0.89440    1.000
    O27      O        0.64339    0.67299    0.57630    1.000
    O28      O        0.60760    0.77617    0.53100    1.000
    O29      O        0.86247    0.93429    0.53340    1.000
    O30      O        0.12031    0.94005    0.37540    1.000
    O31      O        0.00871    0.91475    0.65240    1.000
    O32      O        0.97360    0.95492    0.25180    1.000
    C49      C        0.30370    0.79766    0.95510    1.000
    C50      C        0.19940    0.81834    0.97700    1.000
    C51      C        0.12520    0.79355    0.87110    1.000
    H19      H        0.14500    0.76000    0.78500    1.000
    C52      C        0.01170    0.86477    0.00320    1.000
    H20      H        0.95500    0.88190    0.00700    1.000
    C53      C        0.03040    0.81780    0.88340    1.000
    C54      C        0.94560    0.79398    0.77770    1.000
    C55      C        0.91750    0.73026    0.78980    1.000
    H21      H        0.95000    0.70260    0.84800    1.000
    C56      C        0.82910    0.70850    0.71930    1.000
    H22      H        0.81200    0.66840    0.73000    1.000
    C57      C        0.76570    0.75164    0.64080    1.000
    C58      C        0.79550    0.81460    0.62020    1.000
    H23      H        0.75400    0.84350    0.56430    1.000
    C59      C        0.88610    0.83614    0.68080    1.000
    C60      C        0.92140    0.90059    0.62150    1.000
    C61      C        0.05780    0.93137    0.25770    1.000
    C62      C        0.08390    0.88653    0.11710    1.000
    C63      C        0.17850    0.86417    0.09920    1.000
    H24      H        0.22700    0.87530    0.16200    1.000
    C64      C        0.66620    0.73280    0.57560    1.000
