# CIF file generated by openbabel 3.1.0, see https://openbabel.org
data_I
_chemical_name_common 'image0'
_cell_length_a 13.709
_cell_length_b 13.709
_cell_length_c 15.436
_cell_angle_alpha 90
_cell_angle_beta 90
_cell_angle_gamma 120
_space_group_name_H-M_alt 'P 1'
_space_group_name_Hall 'P 1'
loop_
    _symmetry_equiv_pos_as_xyz
    x,y,z
loop_
    _atom_site_label
    _atom_site_type_symbol
    _atom_site_fract_x
    _atom_site_fract_y
    _atom_site_fract_z
    _atom_site_occupancy
    Al1      Al       0.42950    0.10340    0.23870    1.000
    P1       P        0.65830    0.09610    0.22730    1.000
    O1       O        0.54800    0.08990    0.20770    1.000
    O2       O        0.75260    0.21620    0.22030    1.000
    O3       O        0.65630    0.05000    0.31770    1.000
    O4       O        0.67240    0.02250    0.16190    1.000
    Al2      Al       0.09617    0.43673    0.57203    1.000
    P2       P        0.32497    0.42943    0.56063    1.000
    O5       O        0.21467    0.42323    0.54103    1.000
    O6       O        0.41927    0.54953    0.55363    1.000
    O7       O        0.32297    0.38333    0.65103    1.000
    O8       O        0.33907    0.35583    0.49523    1.000
    Al3      Al       0.76283    0.77007    0.90537    1.000
    P3       P        0.99163    0.76277    0.89397    1.000
    O9       O        0.88133    0.75657    0.87437    1.000
    O10      O        0.08593    0.88287    0.88697    1.000
    O11      O        0.98963    0.71667    0.98437    1.000
    O12      O        0.00573    0.68917    0.82857    1.000
    Al4      Al       0.89660    0.32610    0.23870    1.000
    P4       P        0.90390    0.56220    0.22730    1.000
    O13      O        0.91010    0.45810    0.20770    1.000
    O14      O        0.78380    0.53640    0.22030    1.000
    O15      O        0.95000    0.60630    0.31770    1.000
    O16      O        0.97750    0.64990    0.16190    1.000
    Al5      Al       0.56327    0.65943    0.57203    1.000
    P5       P        0.57057    0.89553    0.56063    1.000
    O17      O        0.57677    0.79143    0.54103    1.000
    O18      O        0.45047    0.86973    0.55363    1.000
    O19      O        0.61667    0.93963    0.65103    1.000
    O20      O        0.64417    0.98323    0.49523    1.000
    Al6      Al       0.22993    0.99277    0.90537    1.000
    P6       P        0.23723    0.22887    0.89397    1.000
    O21      O        0.24343    0.12477    0.87437    1.000
    O22      O        0.11713    0.20307    0.88697    1.000
    O23      O        0.28333    0.27297    0.98437    1.000
    O24      O        0.31083    0.31657    0.82857    1.000
    Al7      Al       0.67390    0.57050    0.23870    1.000
    P7       P        0.43780    0.34170    0.22730    1.000
    O25      O        0.54190    0.45200    0.20770    1.000
    O26      O        0.46360    0.24740    0.22030    1.000
    O27      O        0.39370    0.34370    0.31770    1.000
    O28      O        0.35010    0.32760    0.16190    1.000
    Al8      Al       0.34057    0.90383    0.57203    1.000
    P8       P        0.10447    0.67503    0.56063    1.000
    O29      O        0.20857    0.78533    0.54103    1.000
    O30      O        0.13027    0.58073    0.55363    1.000
    O31      O        0.06037    0.67703    0.65103    1.000
    O32      O        0.01677    0.66093    0.49523    1.000
    Al9      Al       0.00723    0.23717    0.90537    1.000
    P9       P        0.77113    0.00837    0.89397    1.000
    O33      O        0.87523    0.11867    0.87437    1.000
    O34      O        0.79693    0.91407    0.88697    1.000
    O35      O        0.72703    0.01037    0.98437    1.000
    O36      O        0.68343    0.99427    0.82857    1.000
    Al10     Al       0.57050    0.89660    0.76130    1.000
    P10      P        0.34170    0.90390    0.77270    1.000
    O37      O        0.45200    0.91010    0.79230    1.000
    O38      O        0.24740    0.78380    0.77970    1.000
    O39      O        0.34370    0.95000    0.68230    1.000
    O40      O        0.32760    0.97750    0.83810    1.000
    Al11     Al       0.23717    0.22993    0.09463    1.000
    P11      P        0.00837    0.23723    0.10603    1.000
    O41      O        0.11867    0.24343    0.12563    1.000
    O42      O        0.91407    0.11713    0.11303    1.000
    O43      O        0.01037    0.28333    0.01563    1.000
    O44      O        0.99427    0.31083    0.17143    1.000
    Al12     Al       0.90383    0.56327    0.42797    1.000
    P12      P        0.67503    0.57057    0.43937    1.000
    O45      O        0.78533    0.57677    0.45897    1.000
    O46      O        0.58073    0.45047    0.44637    1.000
    O47      O        0.67703    0.61667    0.34897    1.000
    O48      O        0.66093    0.64417    0.50477    1.000
    Al13     Al       0.10340    0.67390    0.76130    1.000
    P13      P        0.09610    0.43780    0.77270    1.000
    O49      O        0.08990    0.54190    0.79230    1.000
    O50      O        0.21620    0.46360    0.77970    1.000
    O51      O        0.05000    0.39370    0.68230    1.000
    O52      O        0.02250    0.35010    0.83810    1.000
    Al14     Al       0.77007    0.00723    0.09463    1.000
    P14      P        0.76277    0.77113    0.10603    1.000
    O53      O        0.75657    0.87523    0.12563    1.000
    O54      O        0.88287    0.79693    0.11303    1.000
    O55      O        0.71667    0.72703    0.01563    1.000
    O56      O        0.68917    0.68343    0.17143    1.000
    Al15     Al       0.43673    0.34057    0.42797    1.000
    P15      P        0.42943    0.10447    0.43937    1.000
    O57      O        0.42323    0.20857    0.45897    1.000
    O58      O        0.54953    0.13027    0.44637    1.000
    O59      O        0.38333    0.06037    0.34897    1.000
    O60      O        0.35583    0.01677    0.50477    1.000
    Al16     Al       0.32610    0.42950    0.76130    1.000
    P16      P        0.56220    0.65830    0.77270    1.000
    O61      O        0.45810    0.54800    0.79230    1.000
    O62      O        0.53640    0.75260    0.77970    1.000
    O63      O        0.60630    0.65630    0.68230    1.000
    O64      O        0.64990    0.67240    0.83810    1.000
    Al17     Al       0.99277    0.76283    0.09463    1.000
    P17      P        0.22887    0.99163    0.10603    1.000
    O65      O        0.12477    0.88133    0.12563    1.000
    O66      O        0.20307    0.08593    0.11303    1.000
    O67      O        0.27297    0.98963    0.01563    1.000
    O68      O        0.31657    0.00573    0.17143    1.000
    Al18     Al       0.65943    0.09617    0.42797    1.000
    P18      P        0.89553    0.32497    0.43937    1.000
    O69      O        0.79143    0.21467    0.45897    1.000
    O70      O        0.86973    0.41927    0.44637    1.000
    O71      O        0.93963    0.32297    0.34897    1.000
    O72      O        0.98323    0.33907    0.50477    1.000
