# CIF file generated by openbabel 3.1.0, see https://openbabel.org
data_I
_chemical_name_common 'image0'
_cell_length_a 35.2721
_cell_length_b 14.6427
_cell_length_c 31.6037
_cell_angle_alpha 90
_cell_angle_beta 102.029
_cell_angle_gamma 90
_space_group_name_H-M_alt 'P 1'
_space_group_name_Hall 'P 1'
loop_
    _symmetry_equiv_pos_as_xyz
    x,y,z
loop_
    _atom_site_label
    _atom_site_type_symbol
    _atom_site_fract_x
    _atom_site_fract_y
    _atom_site_fract_z
    _atom_site_occupancy
    Zn1      Zn       0.66972    0.13331    0.52110    1.000
    Zn2      Zn       0.37862    0.88658    0.68180    1.000
    Zn3      Zn       0.08263    0.12215    0.84166    1.000
    I1       I        0.72620    0.21740    0.54060    1.000
    I2       I        0.62479    0.14420    0.44520    1.000
    I3       I        0.35476    0.87880    0.75048    1.000
    I4       I        0.40215    0.75577    0.64188    1.000
    Zn4      Zn       0.08190    0.86230    0.34170    1.000
    I5       I        0.02597    0.84610    0.37809    1.000
    I6       I        0.11771    0.75080    0.30630    1.000
    Zn5      Zn       0.18010    0.35040    0.03380    1.000
    I7       I        0.24250    0.26950    0.05890    1.000
    I8       I        0.13150    0.31260    0.96350    1.000
    I9       I        0.01910    0.14710    0.87390    1.000
    I10      I        0.11264    0.23650    0.79980    1.000
    Zn6      Zn       0.37650    0.08680    0.18410    1.000
    I11      I        0.35170    0.08850    0.25030    1.000
    I12      I        0.39535    0.23830    0.14640    1.000
    C1       C        0.64990    0.19800    0.60570    1.000
    H1       H        0.67580    0.22100    0.61160    1.000
    C2       C        0.62870    0.21470    0.63490    1.000
    H2       H        0.63900    0.24990    0.65990    1.000
    C3       C        0.59350    0.18150    0.62900    1.000
    C4       C        0.58020    0.12900    0.59400    1.000
    H3       H        0.55490    0.10360    0.58850    1.000
    C5       C        0.60610    0.11400    0.56610    1.000
    H4       H        0.59870    0.06970    0.54380    1.000
    C6       C        0.43740    0.02610    0.72040    1.000
    H5       H        0.42510    0.02220    0.74440    1.000
    C7       C        0.46930    0.08770    0.72360    1.000
    H6       H        0.47790    0.12320    0.74900    1.000
    C8       C        0.48620    0.09390    0.69090    1.000
    C9       C        0.46960    0.04400    0.65390    1.000
    H7       H        0.47710    0.05460    0.62710    1.000
    C10      C        0.44280    0.98200    0.65760    1.000
    H8       H        0.43690    0.93830    0.63520    1.000
    C11      C        0.59730    0.48660    0.77690    1.000
    H9       H        0.62010    0.52250    0.77930    1.000
    C12      C        0.59320    0.41010    0.75020    1.000
    H10      H        0.61350    0.39260    0.73620    1.000
    C13      C        0.56020    0.36120    0.74430    1.000
    C14      C        0.53230    0.38660    0.76880    1.000
    H11      H        0.50950    0.35110    0.76680    1.000
    C15      C        0.53800    0.46100    0.79500    1.000
    H12      H        0.51850    0.47740    0.81030    1.000
    C16      C        0.56880    0.19730    0.66300    1.000
    C17      C        0.52040    0.15200    0.69330    1.000
    C18      C        0.55490    0.27610    0.71710    1.000
    C19      C        0.31570    0.90920    0.60210    1.000
    H13      H        0.32190    0.84810    0.59610    1.000
    C20      C        0.28710    0.95060    0.57650    1.000
    H14      H        0.27320    0.91760    0.55230    1.000
    C21      C        0.27560    0.04040    0.58220    1.000
    C22      C        0.29630    0.08270    0.61890    1.000
    H15      H        0.28980    0.14330    0.62540    1.000
    C23      C        0.32500    0.04020    0.64480    1.000
    H16      H        0.33840    0.07130    0.66990    1.000
    C24      C        0.15290    0.89230    0.41730    1.000
    H17      H        0.15650    0.82870    0.41360    1.000
    C25      C        0.17650    0.93420    0.45090    1.000
    H18      H        0.19690    0.90130    0.46880    1.000
    C26      C        0.17030    0.02830    0.45900    1.000
    C27      C        0.14260    0.06940    0.42840    1.000
    H19      H        0.13870    0.13330    0.43020    1.000
    C28      C        0.12160    0.02450    0.39740    1.000
    H20      H        0.10170    0.05690    0.37840    1.000
    C29      C        0.21510    0.45880    0.55370    1.000
    H21      H        0.23290    0.49880    0.57130    1.000
    C30      C        0.22330    0.36940    0.55490    1.000
    H22      H        0.24760    0.34830    0.57080    1.000
    C31      C        0.19720    0.30950    0.53360    1.000
    C32      C        0.16290    0.34370    0.50800    1.000
    H23      H        0.14450    0.30280    0.49180    1.000
    C33      C        0.15570    0.43730    0.50600    1.000
    H24      H        0.13240    0.46120    0.48910    1.000
    C34      C        0.24360    0.08510    0.55340    1.000
    C35      C        0.19300    0.07900    0.49510    1.000
    C36      C        0.20660    0.20790    0.53130    1.000
    C37      C        0.09300    0.99100    0.27160    1.000
    H25      H        0.11200    0.94720    0.26830    1.000
    C38      C        0.09010    0.07200    0.24720    1.000
    H26      H        0.10920    0.08790    0.23130    1.000
    C39      C        0.05850    0.12700    0.24720    1.000
    C40      C        0.03460    0.10450    0.27180    1.000
    H27      H        0.01260    0.14120    0.27270    1.000
    C41      C        0.04200    0.02680    0.29660    1.000
    H28      H        0.02440    0.00960    0.31430    1.000
    C42      C        0.11050    0.38700    0.07420    1.000
    H29      H        0.10320    0.43230    0.05240    1.000
    C43      C        0.08850    0.37600    0.10470    1.000
    H30      H        0.06730    0.41650    0.10420    1.000
    C44      C        0.09500    0.31180    0.13470    1.000
    C45      C        0.12930    0.26140    0.13700    1.000
    H31      H        0.13810    0.21800    0.15930    1.000
    C46      C        0.15020    0.28020    0.10330    1.000
    H32      H        0.17300    0.24560    0.10310    1.000
    C47      C        0.93680    0.45980    0.22570    1.000
    H33      H        0.92530    0.46530    0.25020    1.000
    C48      C        0.96800    0.40520    0.22750    1.000
    H34      H        0.97770    0.37190    0.25330    1.000
    C49      C        0.98640    0.39630    0.19320    1.000
    C50      C        0.97070    0.43790    0.15590    1.000
    H35      H        0.98150    0.43090    0.13090    1.000
    C51      C        0.93710    0.49290    0.15480    1.000
    H36      H        0.92520    0.52090    0.12830    1.000
    C52      C        0.05310    0.20850    0.21760    1.000
    C53      C        0.07050    0.29410    0.16450    1.000
    C54      C        0.01970    0.33330    0.19370    1.000
    C55      C        0.21420    0.52210    0.05120    1.000
    H37      H        0.23200    0.48000    0.06730    1.000
    C56      C        0.22300    0.61850    0.05450    1.000
    H38      H        0.24550    0.64020    0.07400    1.000
    C57      C        0.19800    0.67860    0.02860    1.000
    C58      C        0.16410    0.64450    0.00420    1.000
    H39      H        0.14550    0.68340    0.98700    1.000
    C59      C        0.15820    0.55160    0.00560    1.000
    H40      H        0.13420    0.52900    0.98980    1.000
    C60      C        0.11720    0.96960    0.89610    1.000
    H41      H        0.09720    0.93920    0.87640    1.000
    C61      C        0.13880    0.91930    0.93080    1.000
    H42      H        0.13270    0.85770    0.93590    1.000
    C62      C        0.16970    0.96430    0.95730    1.000
    C63      C        0.17510    0.05470    0.95080    1.000
    H43      H        0.19520    0.08690    0.96960    1.000
    C64      C        0.15160    0.09960    0.91710    1.000
    H44      H        0.15540    0.16310    0.91330    1.000
    C65      C        0.31340    0.07430    0.10460    1.000
    H45      H        0.31840    0.13740    0.10140    1.000
    C66      C        0.28370    0.03500    0.07480    1.000
    H46      H        0.26880    0.06960    0.05190    1.000
    C67      C        0.27680    0.94500    0.07960    1.000
    C68      C        0.30060    0.89630    0.11360    1.000
    H47      H        0.29730    0.83270    0.11750    1.000
    C69      C        0.32920    0.94600    0.14120    1.000
    H48      H        0.34520    0.91450    0.16450    1.000
    C70      C        0.20620    0.77710    0.02790    1.000
    C71      C        0.19370    0.91250    0.99250    1.000
    C72      C        0.24350    0.89880    0.04860    1.000
    N1       N        0.63800    0.15260    0.56830    1.000
    N2       N        0.42440    0.97640    0.68780    1.000
    N3       N        0.57070    0.51280    0.79990    1.000
    N4       N        0.54140    0.13800    0.66150    1.000
    N5       N        0.52590    0.22170    0.72050    1.000
    N6       N        0.57720    0.26710    0.68910    1.000
    N7       N        0.33660    0.95250    0.63720    1.000
    N8       N        0.12560    0.93330    0.38960    1.000
    N9       N        0.18360    0.49410    0.52940    1.000
    N10      N        0.22520    0.03590    0.51950    1.000
    N11      N        0.18360    0.16190    0.49910    1.000
    N12      N        0.23620    0.17420    0.56000    1.000
    N13      N        0.07220    0.97620    0.29660    1.000
    N14      N        0.14040    0.33920    0.07420    1.000
    N15      N        0.92190    0.50690    0.18880    1.000
    N16      N        0.07580    0.21790    0.18930    1.000
    N17      N        0.04030    0.35220    0.16570    1.000
    N18      N        0.02570    0.26880    0.22290    1.000
    N19      N        0.18250    0.49120    0.02670    1.000
    N20      N        0.12330    0.05600    0.88940    1.000
    N21      N        0.33510    0.03070    0.13700    1.000
    N22      N        0.18260    0.82410    0.99720    1.000
    N23      N        0.22300    0.95350    0.01810    1.000
    N24      N        0.23700    0.81200    0.05550    1.000
    C73      C        0.23890    0.65400    0.16100    1.000
    N25      N        0.21450    0.58530    0.17020    1.000
    N26      N        0.27270    0.62200    0.15450    1.000
    C74      C        0.23650    0.49700    0.17170    1.000
    C75      C        0.27130    0.52900    0.16150    1.000
    C76      C        0.29740    0.46800    0.15870    1.000
    H49      H        0.32140    0.48400    0.15160    1.000
    C77      C        0.28940    0.38200    0.16610    1.000
    H50      H        0.30870    0.33870    0.16320    1.000
    C78      C        0.25580    0.34600    0.17770    1.000
    H51      H        0.25240    0.28360    0.18470    1.000
    C79      C        0.22750    0.41600    0.17750    1.000
    H52      H        0.20230    0.40180    0.18180    1.000
    C80      C        0.22650    0.74700    0.15620    1.000
    N27      N        0.25270    0.81900    0.18060    1.000
    N28      N        0.19390    0.77000    0.12910    1.000
    C81      C        0.22940    0.89900    0.16350    1.000
    C82      C        0.19730    0.86900    0.13330    1.000
    C83      C        0.17150    0.93200    0.11050    1.000
    H53      H        0.14950    0.91210    0.08980    1.000
    C84      C        0.17790    0.02510    0.11790    1.000
    H54      H        0.16020    0.06840    0.10230    1.000
    C85      C        0.21000    0.05470    0.14810    1.000
    H55      H        0.21430    0.11820    0.15310    1.000
    C86      C        0.23580    0.99100    0.17090    1.000
    H56      H        0.25770    0.01160    0.19160    1.000
    C87      C        0.17720    0.59900    0.18560    1.000
    H57      H        0.16150    0.54260    0.18040    1.000
    H58      H        0.16220    0.64900    0.16880    1.000
    C88      C        0.18500    0.62300    0.23390    1.000
    H59      H        0.15990    0.62850    0.24300    1.000
    H60      H        0.19950    0.57180    0.25050    1.000
    C89      C        0.20550    0.70100    0.24390    1.000
    H61      H        0.19060    0.75590    0.24150    1.000
    C90      C        0.24810    0.71300    0.25800    1.000
    H62      H        0.26300    0.66200    0.27020    1.000
    C91      C        0.26870    0.80000    0.25430    1.000
    H63      H        0.29150    0.80330    0.27850    1.000
    H64      H        0.25130    0.85120    0.25730    1.000
    C92      C        0.28190    0.81000    0.21270    1.000
    H65      H        0.29900    0.86360    0.21430    1.000
    H66      H        0.29710    0.75500    0.20800    1.000
    C93      C        0.04200    0.01200    0.99600    1.000
    H67      H        0.01790    0.04690    0.99590    1.000
    H68      H        0.03920    0.97800    0.96900    1.000
    C94      C        0.07700    0.08000    0.00060    1.000
    H69      H        0.10120    0.04580    0.00340    1.000
    H70      H        0.07320    0.11940    0.97470    1.000
    C95      C        0.07700    0.13700    0.04100    1.000
    H71      H        0.05200    0.17000    0.03840    1.000
    H72      H        0.09800    0.18320    0.04450    1.000
    C96      C        0.08300    0.07400    0.08070    1.000
    H73      H        0.10970    0.04710    0.08470    1.000
    H74      H        0.08240    0.11070    0.10670    1.000
    C97      C        0.05400    0.99600    0.07800    1.000
    H75      H        0.06270    0.95310    0.10180    1.000
    H76      H        0.02870    0.02170    0.08050    1.000
    C98      C        0.04900    0.94500    0.03500    1.000
    H77      H        0.02680    0.90260    0.03210    1.000
    H78      H        0.07260    0.90830    0.03470    1.000
    C99      C        0.94700    0.79800    0.79100    1.000
    H79      H        0.95480    0.83210    0.76710    1.000
    H80      H        0.91830    0.79140    0.78410    1.000
    C100     C        0.96700    0.70400    0.79700    1.000
    H81      H        0.99510    0.71040    0.80410    1.000
    H82      H        0.95920    0.66700    0.77030    1.000
    C101     C        0.95200    0.65800    0.83500    1.000
    H83      H        0.92410    0.67190    0.83340    1.000
    H84      H        0.95540    0.59120    0.83490    1.000
    C102     C        0.97700    0.70200    0.87500    1.000
    H85      H        0.99910    0.66070    0.88740    1.000
    H86      H        0.96200    0.71330    0.89740    1.000
    C103     C        0.99310    0.79300    0.86100    1.000
    H87      H        0.01300    0.78010    0.84400    1.000
    H88      H        0.00550    0.82790    0.88720    1.000
    C104     C        0.96000    0.84900    0.83400    1.000
    H89      H        0.93820    0.85440    0.84920    1.000
    H90      H        0.96910    0.91110    0.82880    1.000
    I13      I        0.73082    0.22770    0.54360    1.000
    I14      I        0.62630    0.15440    0.44970    1.000
    I15      I        0.35580    0.90130    0.75430    1.000
    I16      I        0.39020    0.72900    0.65850    1.000
    Zn7      Zn       0.09260    0.87600    0.34270    1.000
    I17      I        0.03320    0.81980    0.37040    1.000
    I18      I        0.13300    0.76100    0.30660    1.000
    Zn8      Zn       0.16830    0.35520    0.02210    1.000
    I19      I        0.22887    0.26010    0.04379    1.000
    I20      I        0.11930    0.33270    0.95207    1.000
    I21      I        0.03050    0.14550    0.87610    1.000
    I22      I        0.12250    0.23320    0.80760    1.000
    Zn9      Zn       0.37490    0.11420    0.18340    1.000
    I23      I        0.35010    0.09840    0.25770    1.000
    I24      I        0.39470    0.23140    0.15620    1.000
    C105     C        0.14990    0.95200    0.09400    1.000
    N29      N        0.13850    0.94100    0.13560    1.000
    N30      N        0.17850    0.99800    0.09600    1.000
    C106     C        0.16880    0.99700    0.16340    1.000
    C107     C        0.19430    0.02500    0.13790    1.000
    C108     C        0.22710    0.07600    0.15600    1.000
    H91      H        0.24450    0.09490    0.13850    1.000
    C109     C        0.23430    0.09800    0.20000    1.000
    H92      H        0.25670    0.13250    0.21210    1.000
    C110     C        0.20890    0.07000    0.22530    1.000
    H93      H        0.21380    0.08520    0.25510    1.000
    C111     C        0.17610    0.02000    0.20710    1.000
    H94      H        0.15870    0.00030    0.22460    1.000
    C112     C        0.12240    0.91000    0.05900    1.000
    N31      N        0.10770    0.95700    0.02120    1.000
    N32      N        0.11440    0.82300    0.05760    1.000
    C113     C        0.08150    0.88600    0.98820    1.000
    C114     C        0.08650    0.80800    0.01380    1.000
    C115     C        0.06780    0.72800    0.99830    1.000
    H95      H        0.07120    0.67440    0.01580    1.000
    C116     C        0.04420    0.72500    0.95720    1.000
    H96      H        0.03140    0.67010    0.94660    1.000
    C117     C        0.03920    0.80300    0.93160    1.000
    H97      H        0.02310    0.80140    0.90350    1.000
    C118     C        0.05790    0.88400    0.94710    1.000
    H98      H        0.05450    0.93710    0.92960    1.000
    C119     C        0.10090    0.90900    0.14400    1.000
    H99      H        0.08990    0.86180    0.12310    1.000
    H100     H        0.10510    0.88200    0.17370    1.000
    C120     C        0.07400    0.98300    0.14200    1.000
    H101     H        0.05140    0.96260    0.15250    1.000
    H102     H        0.08670    0.03340    0.16040    1.000
    C121     C        0.06400    0.01200    0.10300    1.000
    H103     H        0.04180    0.97500    0.09120    1.000
    C122     C        0.06700    0.06300    0.07200    1.000
    H104     H        0.05820    0.11790    0.08260    1.000
    C123     C        0.07500    0.10400    0.02600    1.000
    H105     H        0.05010    0.10270    0.00410    1.000
    H106     H        0.08260    0.16880    0.03050    1.000
    C124     C        0.10500    0.05500    0.00800    1.000
    H107     H        0.09840    0.05850    0.97560    1.000
    H108     H        0.13040    0.08490    0.01770    1.000
    C125     C        0.29300    0.35000    0.17150    1.000
    H109     H        0.27890    0.32590    0.19280    1.000
    H110     H        0.32020    0.32660    0.17910    1.000
    C126     C        0.27370    0.31700    0.12540    1.000
    H111     H        0.27670    0.25010    0.12350    1.000
    H112     H        0.24570    0.33120    0.11980    1.000
    C127     C        0.29200    0.36400    0.09100    1.000
    H113     H        0.27530    0.41350    0.07610    1.000
    H114     H        0.29740    0.31990    0.06930    1.000
    C128     C        0.33100    0.40400    0.11800    1.000
    H115     H        0.34430    0.35810    0.13880    1.000
    H116     H        0.34830    0.42300    0.09890    1.000
    C129     C        0.31900    0.48800    0.14300    1.000
    H117     H        0.34250    0.51930    0.15910    1.000
    H118     H        0.30420    0.53230    0.12190    1.000
    C130     C        0.29400    0.45500    0.17400    1.000
    H119     H        0.30530    0.47500    0.20370    1.000
    H120     H        0.26740    0.47930    0.16530    1.000
    Zn10     Zn       0.16972    0.63331    0.52110    1.000
    Zn11     Zn       0.87862    0.38658    0.68180    1.000
    Zn12     Zn       0.58263    0.62215    0.84166    1.000
    I25      I        0.22620    0.71740    0.54060    1.000
    I26      I        0.12479    0.64420    0.44520    1.000
    I27      I        0.85476    0.37880    0.75048    1.000
    I28      I        0.90215    0.25577    0.64188    1.000
    Zn13     Zn       0.58190    0.36230    0.34170    1.000
    I29      I        0.52597    0.34610    0.37809    1.000
    I30      I        0.61771    0.25080    0.30630    1.000
    Zn14     Zn       0.68010    0.85040    0.03380    1.000
    I31      I        0.74250    0.76950    0.05890    1.000
    I32      I        0.63150    0.81260    0.96350    1.000
    I33      I        0.51910    0.64710    0.87390    1.000
    I34      I        0.61264    0.73650    0.79980    1.000
    Zn15     Zn       0.87650    0.58680    0.18410    1.000
    I35      I        0.85170    0.58850    0.25030    1.000
    I36      I        0.89535    0.73830    0.14640    1.000
    C131     C        0.14990    0.69800    0.60570    1.000
    H121     H        0.17580    0.72100    0.61160    1.000
    C132     C        0.12870    0.71470    0.63490    1.000
    H122     H        0.13900    0.74990    0.65990    1.000
    C133     C        0.09350    0.68150    0.62900    1.000
    C134     C        0.08020    0.62900    0.59400    1.000
    H123     H        0.05490    0.60360    0.58850    1.000
    C135     C        0.10610    0.61400    0.56610    1.000
    H124     H        0.09870    0.56970    0.54380    1.000
    C136     C        0.93740    0.52610    0.72040    1.000
    H125     H        0.92510    0.52220    0.74440    1.000
    C137     C        0.96930    0.58770    0.72360    1.000
    H126     H        0.97790    0.62320    0.74900    1.000
    C138     C        0.98620    0.59390    0.69090    1.000
    C139     C        0.96960    0.54400    0.65390    1.000
    H127     H        0.97710    0.55460    0.62710    1.000
    C140     C        0.94280    0.48200    0.65760    1.000
    H128     H        0.93690    0.43830    0.63520    1.000
    C141     C        0.09730    0.98660    0.77690    1.000
    H129     H        0.12010    0.02250    0.77930    1.000
    C142     C        0.09320    0.91010    0.75020    1.000
    H130     H        0.11350    0.89260    0.73620    1.000
    C143     C        0.06020    0.86120    0.74430    1.000
    C144     C        0.03230    0.88660    0.76880    1.000
    H131     H        0.00950    0.85110    0.76680    1.000
    C145     C        0.03800    0.96100    0.79500    1.000
    H132     H        0.01850    0.97740    0.81030    1.000
    C146     C        0.06880    0.69730    0.66300    1.000
    C147     C        0.02040    0.65200    0.69330    1.000
    C148     C        0.05490    0.77610    0.71710    1.000
    C149     C        0.81570    0.40920    0.60210    1.000
    H133     H        0.82190    0.34810    0.59610    1.000
    C150     C        0.78710    0.45060    0.57650    1.000
    H134     H        0.77320    0.41760    0.55230    1.000
    C151     C        0.77560    0.54040    0.58220    1.000
    C152     C        0.79630    0.58270    0.61890    1.000
    H135     H        0.78980    0.64330    0.62540    1.000
    C153     C        0.82500    0.54020    0.64480    1.000
    H136     H        0.83840    0.57130    0.66990    1.000
    C154     C        0.65290    0.39230    0.41730    1.000
    H137     H        0.65650    0.32870    0.41360    1.000
    C155     C        0.67650    0.43420    0.45090    1.000
    H138     H        0.69690    0.40130    0.46880    1.000
    C156     C        0.67030    0.52830    0.45900    1.000
    C157     C        0.64260    0.56940    0.42840    1.000
    H139     H        0.63870    0.63330    0.43020    1.000
    C158     C        0.62160    0.52450    0.39740    1.000
    H140     H        0.60170    0.55690    0.37840    1.000
    C159     C        0.71510    0.95880    0.55370    1.000
    H141     H        0.73290    0.99880    0.57130    1.000
    C160     C        0.72330    0.86940    0.55490    1.000
    H142     H        0.74760    0.84830    0.57080    1.000
    C161     C        0.69720    0.80950    0.53360    1.000
    C162     C        0.66290    0.84370    0.50800    1.000
    H143     H        0.64450    0.80280    0.49180    1.000
    C163     C        0.65570    0.93730    0.50600    1.000
    H144     H        0.63240    0.96120    0.48910    1.000
    C164     C        0.74360    0.58510    0.55340    1.000
    C165     C        0.69300    0.57900    0.49510    1.000
    C166     C        0.70660    0.70790    0.53130    1.000
    C167     C        0.59300    0.49100    0.27160    1.000
    H145     H        0.61200    0.44720    0.26830    1.000
    C168     C        0.59010    0.57200    0.24720    1.000
    H146     H        0.60920    0.58790    0.23130    1.000
    C169     C        0.55850    0.62700    0.24720    1.000
    C170     C        0.53460    0.60450    0.27180    1.000
    H147     H        0.51260    0.64120    0.27270    1.000
    C171     C        0.54200    0.52680    0.29660    1.000
    H148     H        0.52440    0.50960    0.31430    1.000
    C172     C        0.61050    0.88700    0.07420    1.000
    H149     H        0.60320    0.93230    0.05240    1.000
    C173     C        0.58850    0.87600    0.10470    1.000
    H150     H        0.56730    0.91650    0.10420    1.000
    C174     C        0.59500    0.81180    0.13470    1.000
    C175     C        0.62930    0.76140    0.13700    1.000
    H151     H        0.63810    0.71800    0.15930    1.000
    C176     C        0.65020    0.78020    0.10330    1.000
    H152     H        0.67300    0.74560    0.10310    1.000
    C177     C        0.43680    0.95980    0.22570    1.000
    H153     H        0.42530    0.96530    0.25020    1.000
    C178     C        0.46800    0.90520    0.22750    1.000
    H154     H        0.47770    0.87190    0.25330    1.000
    C179     C        0.48640    0.89630    0.19320    1.000
    C180     C        0.47070    0.93790    0.15590    1.000
    H155     H        0.48150    0.93090    0.13090    1.000
    C181     C        0.43710    0.99290    0.15480    1.000
    H156     H        0.42520    0.02090    0.12830    1.000
    C182     C        0.55310    0.70850    0.21760    1.000
    C183     C        0.57050    0.79410    0.16450    1.000
    C184     C        0.51970    0.83330    0.19370    1.000
    C185     C        0.71420    0.02210    0.05120    1.000
    H157     H        0.73200    0.98000    0.06730    1.000
    C186     C        0.72300    0.11850    0.05450    1.000
    H158     H        0.74550    0.14020    0.07400    1.000
    C187     C        0.69800    0.17860    0.02860    1.000
    C188     C        0.66410    0.14450    0.00420    1.000
    H159     H        0.64550    0.18340    0.98700    1.000
    C189     C        0.65820    0.05160    0.00560    1.000
    H160     H        0.63420    0.02900    0.98980    1.000
    C190     C        0.61720    0.46960    0.89610    1.000
    H161     H        0.59720    0.43920    0.87640    1.000
    C191     C        0.63880    0.41930    0.93080    1.000
    H162     H        0.63270    0.35770    0.93590    1.000
    C192     C        0.66970    0.46430    0.95730    1.000
    C193     C        0.67510    0.55470    0.95080    1.000
    H163     H        0.69520    0.58690    0.96960    1.000
    C194     C        0.65160    0.59960    0.91710    1.000
    H164     H        0.65540    0.66310    0.91330    1.000
    C195     C        0.81340    0.57430    0.10460    1.000
    H165     H        0.81840    0.63740    0.10140    1.000
    C196     C        0.78370    0.53500    0.07480    1.000
    H166     H        0.76880    0.56960    0.05190    1.000
    C197     C        0.77680    0.44500    0.07960    1.000
    C198     C        0.80060    0.39630    0.11360    1.000
    H167     H        0.79730    0.33270    0.11750    1.000
    C199     C        0.82920    0.44600    0.14120    1.000
    H168     H        0.84520    0.41450    0.16450    1.000
    C200     C        0.70620    0.27710    0.02790    1.000
    C201     C        0.69370    0.41250    0.99250    1.000
    C202     C        0.74350    0.39880    0.04860    1.000
    N33      N        0.13800    0.65260    0.56830    1.000
    N34      N        0.92440    0.47640    0.68780    1.000
    N35      N        0.07070    0.01280    0.79990    1.000
    N36      N        0.04140    0.63800    0.66150    1.000
    N37      N        0.02590    0.72170    0.72050    1.000
    N38      N        0.07720    0.76710    0.68910    1.000
    N39      N        0.83660    0.45250    0.63720    1.000
    N40      N        0.62560    0.43330    0.38960    1.000
    N41      N        0.68360    0.99410    0.52940    1.000
    N42      N        0.72520    0.53590    0.51950    1.000
    N43      N        0.68360    0.66190    0.49910    1.000
    N44      N        0.73620    0.67420    0.56000    1.000
    N45      N        0.57220    0.47620    0.29660    1.000
    N46      N        0.64040    0.83920    0.07420    1.000
    N47      N        0.42190    0.00690    0.18880    1.000
    N48      N        0.57580    0.71790    0.18930    1.000
    N49      N        0.54030    0.85220    0.16570    1.000
    N50      N        0.52570    0.76880    0.22290    1.000
    N51      N        0.68250    0.99120    0.02670    1.000
    N52      N        0.62330    0.55600    0.88940    1.000
    N53      N        0.83510    0.53070    0.13700    1.000
    N54      N        0.68260    0.32410    0.99720    1.000
    N55      N        0.72300    0.45350    0.01810    1.000
    N56      N        0.73700    0.31200    0.05550    1.000
    C203     C        0.73890    0.15400    0.16100    1.000
    N57      N        0.71450    0.08530    0.17020    1.000
    N58      N        0.77270    0.12200    0.15450    1.000
    C204     C        0.73650    0.99700    0.17170    1.000
    C205     C        0.77130    0.02900    0.16150    1.000
    C206     C        0.79740    0.96800    0.15870    1.000
    H169     H        0.82140    0.98400    0.15160    1.000
    C207     C        0.78940    0.88200    0.16610    1.000
    H170     H        0.80870    0.83870    0.16320    1.000
    C208     C        0.75580    0.84600    0.17770    1.000
    H171     H        0.75240    0.78360    0.18470    1.000
    C209     C        0.72750    0.91600    0.17750    1.000
    H172     H        0.70230    0.90180    0.18180    1.000
    C210     C        0.72650    0.24700    0.15620    1.000
    N59      N        0.75270    0.31900    0.18060    1.000
    N60      N        0.69390    0.27000    0.12910    1.000
    C211     C        0.72940    0.39900    0.16350    1.000
    C212     C        0.69730    0.36900    0.13330    1.000
    C213     C        0.67150    0.43200    0.11050    1.000
    H173     H        0.64950    0.41210    0.08980    1.000
    C214     C        0.67790    0.52510    0.11790    1.000
    H174     H        0.66020    0.56840    0.10230    1.000
    C215     C        0.71000    0.55470    0.14810    1.000
    H175     H        0.71430    0.61820    0.15310    1.000
    C216     C        0.73580    0.49100    0.17090    1.000
    H176     H        0.75770    0.51160    0.19160    1.000
    C217     C        0.67720    0.09900    0.18560    1.000
    H177     H        0.66150    0.04260    0.18040    1.000
    H178     H        0.66220    0.14900    0.16880    1.000
    C218     C        0.68500    0.12300    0.23390    1.000
    H179     H        0.65990    0.12850    0.24300    1.000
    H180     H        0.69950    0.07180    0.25050    1.000
    C219     C        0.70550    0.20100    0.24390    1.000
    H181     H        0.69060    0.25590    0.24150    1.000
    C220     C        0.74810    0.21300    0.25800    1.000
    H182     H        0.76300    0.16200    0.27020    1.000
    C221     C        0.76870    0.30000    0.25430    1.000
    H183     H        0.79150    0.30330    0.27850    1.000
    H184     H        0.75130    0.35120    0.25730    1.000
    C222     C        0.78190    0.31000    0.21270    1.000
    H185     H        0.79900    0.36360    0.21430    1.000
    H186     H        0.79710    0.25500    0.20800    1.000
    C223     C        0.54200    0.51200    0.99600    1.000
    H187     H        0.51790    0.54690    0.99590    1.000
    H188     H        0.53920    0.47800    0.96900    1.000
    C224     C        0.57700    0.58000    0.00060    1.000
    H189     H        0.60120    0.54580    0.00340    1.000
    H190     H        0.57320    0.61940    0.97470    1.000
    C225     C        0.57700    0.63700    0.04100    1.000
    H191     H        0.55200    0.67000    0.03840    1.000
    H192     H        0.59800    0.68320    0.04450    1.000
    C226     C        0.58300    0.57400    0.08070    1.000
    H193     H        0.60970    0.54710    0.08470    1.000
    H194     H        0.58240    0.61070    0.10670    1.000
    C227     C        0.55400    0.49600    0.07800    1.000
    H195     H        0.56270    0.45310    0.10180    1.000
    H196     H        0.52870    0.52170    0.08050    1.000
    C228     C        0.54900    0.44500    0.03500    1.000
    H197     H        0.52680    0.40260    0.03210    1.000
    H198     H        0.57260    0.40830    0.03470    1.000
    C229     C        0.44700    0.29800    0.79100    1.000
    H199     H        0.45480    0.33210    0.76710    1.000
    H200     H        0.41830    0.29140    0.78410    1.000
    C230     C        0.46700    0.20400    0.79700    1.000
    H201     H        0.49510    0.21040    0.80410    1.000
    H202     H        0.45920    0.16700    0.77030    1.000
    C231     C        0.45200    0.15800    0.83500    1.000
    H203     H        0.42410    0.17190    0.83340    1.000
    H204     H        0.45540    0.09120    0.83490    1.000
    C232     C        0.47700    0.20200    0.87500    1.000
    H205     H        0.49910    0.16070    0.88740    1.000
    H206     H        0.46200    0.21330    0.89740    1.000
    C233     C        0.49310    0.29300    0.86100    1.000
    H207     H        0.51300    0.28010    0.84400    1.000
    H208     H        0.50550    0.32790    0.88720    1.000
    C234     C        0.46000    0.34900    0.83400    1.000
    H209     H        0.43820    0.35440    0.84920    1.000
    H210     H        0.46910    0.41110    0.82880    1.000
    I37      I        0.23082    0.72770    0.54360    1.000
    I38      I        0.12630    0.65440    0.44970    1.000
    I39      I        0.85580    0.40130    0.75430    1.000
    I40      I        0.89020    0.22900    0.65850    1.000
    Zn16     Zn       0.59260    0.37600    0.34270    1.000
    I41      I        0.53320    0.31980    0.37040    1.000
    I42      I        0.63300    0.26100    0.30660    1.000
    Zn17     Zn       0.66830    0.85520    0.02210    1.000
    I43      I        0.72887    0.76010    0.04379    1.000
    I44      I        0.61930    0.83270    0.95207    1.000
    I45      I        0.53050    0.64550    0.87610    1.000
    I46      I        0.62250    0.73320    0.80760    1.000
    Zn18     Zn       0.87490    0.61420    0.18340    1.000
    I47      I        0.85010    0.59840    0.25770    1.000
    I48      I        0.89470    0.73140    0.15620    1.000
    C235     C        0.64990    0.45200    0.09400    1.000
    N61      N        0.63850    0.44100    0.13560    1.000
    N62      N        0.67850    0.49800    0.09600    1.000
    C236     C        0.66880    0.49700    0.16340    1.000
    C237     C        0.69430    0.52500    0.13790    1.000
    C238     C        0.72710    0.57600    0.15600    1.000
    H211     H        0.74450    0.59490    0.13850    1.000
    C239     C        0.73430    0.59800    0.20000    1.000
    H212     H        0.75670    0.63250    0.21210    1.000
    C240     C        0.70890    0.57000    0.22530    1.000
    H213     H        0.71380    0.58520    0.25510    1.000
    C241     C        0.67610    0.52000    0.20710    1.000
    H214     H        0.65870    0.50030    0.22460    1.000
    C242     C        0.62240    0.41000    0.05900    1.000
    N63      N        0.60770    0.45700    0.02120    1.000
    N64      N        0.61440    0.32300    0.05760    1.000
    C243     C        0.58150    0.38600    0.98820    1.000
    C244     C        0.58650    0.30800    0.01380    1.000
    C245     C        0.56780    0.22800    0.99830    1.000
    H215     H        0.57120    0.17440    0.01580    1.000
    C246     C        0.54420    0.22500    0.95720    1.000
    H216     H        0.53140    0.17010    0.94660    1.000
    C247     C        0.53920    0.30300    0.93160    1.000
    H217     H        0.52310    0.30140    0.90350    1.000
    C248     C        0.55790    0.38400    0.94710    1.000
    H218     H        0.55450    0.43710    0.92960    1.000
    C249     C        0.60090    0.40900    0.14400    1.000
    H219     H        0.58990    0.36180    0.12310    1.000
    H220     H        0.60510    0.38200    0.17370    1.000
    C250     C        0.57400    0.48300    0.14200    1.000
    H221     H        0.55140    0.46260    0.15250    1.000
    H222     H        0.58670    0.53340    0.16040    1.000
    C251     C        0.56400    0.51200    0.10300    1.000
    H223     H        0.54180    0.47500    0.09120    1.000
    C252     C        0.56700    0.56300    0.07200    1.000
    H224     H        0.55820    0.61790    0.08260    1.000
    C253     C        0.57500    0.60400    0.02600    1.000
    H225     H        0.55010    0.60270    0.00410    1.000
    H226     H        0.58260    0.66880    0.03050    1.000
    C254     C        0.60500    0.55500    0.00800    1.000
    H227     H        0.59840    0.55850    0.97560    1.000
    H228     H        0.63040    0.58490    0.01770    1.000
    C255     C        0.79300    0.85000    0.17150    1.000
    H229     H        0.77890    0.82590    0.19280    1.000
    H230     H        0.82020    0.82660    0.17910    1.000
    C256     C        0.77370    0.81700    0.12540    1.000
    H231     H        0.77670    0.75010    0.12350    1.000
    H232     H        0.74570    0.83120    0.11980    1.000
    C257     C        0.79200    0.86400    0.09100    1.000
    H233     H        0.77530    0.91350    0.07610    1.000
    H234     H        0.79740    0.81990    0.06930    1.000
    C258     C        0.83100    0.90400    0.11800    1.000
    H235     H        0.84430    0.85810    0.13880    1.000
    H236     H        0.84830    0.92300    0.09890    1.000
    C259     C        0.81900    0.98800    0.14300    1.000
    H237     H        0.84250    0.01930    0.15910    1.000
    H238     H        0.80420    0.03230    0.12190    1.000
    C260     C        0.79400    0.95500    0.17400    1.000
    H239     H        0.80530    0.97500    0.20370    1.000
    H240     H        0.76740    0.97930    0.16530    1.000
    Zn19     Zn       0.33028    0.13331    0.47890    1.000
    Zn20     Zn       0.62138    0.88658    0.31820    1.000
    Zn21     Zn       0.91737    0.12215    0.15834    1.000
    I49      I        0.27380    0.21740    0.45940    1.000
    I50      I        0.37521    0.14420    0.55480    1.000
    I51      I        0.64524    0.87880    0.24952    1.000
    I52      I        0.59785    0.75577    0.35812    1.000
    Zn22     Zn       0.91810    0.86230    0.65830    1.000
    I53      I        0.97403    0.84610    0.62191    1.000
    I54      I        0.88229    0.75080    0.69370    1.000
    Zn23     Zn       0.81990    0.35040    0.96620    1.000
    I55      I        0.75750    0.26950    0.94110    1.000
    I56      I        0.86850    0.31260    0.03650    1.000
    I57      I        0.98090    0.14710    0.12610    1.000
    I58      I        0.88736    0.23650    0.20020    1.000
    Zn24     Zn       0.62350    0.08680    0.81590    1.000
    I59      I        0.64830    0.08850    0.74970    1.000
    I60      I        0.60465    0.23830    0.85360    1.000
    C261     C        0.35010    0.19800    0.39430    1.000
    H241     H        0.32420    0.22100    0.38840    1.000
    C262     C        0.37130    0.21470    0.36510    1.000
    H242     H        0.36100    0.24990    0.34010    1.000
    C263     C        0.40650    0.18150    0.37100    1.000
    C264     C        0.41980    0.12900    0.40600    1.000
    H243     H        0.44510    0.10360    0.41150    1.000
    C265     C        0.39390    0.11400    0.43390    1.000
    H244     H        0.40130    0.06970    0.45620    1.000
    C266     C        0.56260    0.02610    0.27960    1.000
    H245     H        0.57490    0.02220    0.25560    1.000
    C267     C        0.53070    0.08770    0.27640    1.000
    H246     H        0.52210    0.12320    0.25100    1.000
    C268     C        0.51380    0.09390    0.30910    1.000
    C269     C        0.53040    0.04400    0.34610    1.000
    H247     H        0.52290    0.05460    0.37290    1.000
    C270     C        0.55720    0.98200    0.34240    1.000
    H248     H        0.56310    0.93830    0.36480    1.000
    C271     C        0.40270    0.48660    0.22310    1.000
    H249     H        0.37990    0.52250    0.22070    1.000
    C272     C        0.40680    0.41010    0.24980    1.000
    H250     H        0.38650    0.39260    0.26380    1.000
    C273     C        0.43980    0.36120    0.25570    1.000
    C274     C        0.46770    0.38660    0.23120    1.000
    H251     H        0.49050    0.35110    0.23320    1.000
    C275     C        0.46200    0.46100    0.20500    1.000
    H252     H        0.48150    0.47740    0.18970    1.000
    C276     C        0.43120    0.19730    0.33700    1.000
    C277     C        0.47960    0.15200    0.30670    1.000
    C278     C        0.44510    0.27610    0.28290    1.000
    C279     C        0.68430    0.90920    0.39790    1.000
    H253     H        0.67810    0.84810    0.40390    1.000
    C280     C        0.71290    0.95060    0.42350    1.000
    H254     H        0.72680    0.91760    0.44770    1.000
    C281     C        0.72440    0.04040    0.41780    1.000
    C282     C        0.70370    0.08270    0.38110    1.000
    H255     H        0.71020    0.14330    0.37460    1.000
    C283     C        0.67500    0.04020    0.35520    1.000
    H256     H        0.66160    0.07130    0.33010    1.000
    C284     C        0.84710    0.89230    0.58270    1.000
    H257     H        0.84350    0.82870    0.58640    1.000
    C285     C        0.82350    0.93420    0.54910    1.000
    H258     H        0.80310    0.90130    0.53120    1.000
    C286     C        0.82970    0.02830    0.54100    1.000
    C287     C        0.85740    0.06940    0.57160    1.000
    H259     H        0.86130    0.13330    0.56980    1.000
    C288     C        0.87840    0.02450    0.60260    1.000
    H260     H        0.89830    0.05690    0.62160    1.000
    C289     C        0.78490    0.45880    0.44630    1.000
    H261     H        0.76710    0.49880    0.42870    1.000
    C290     C        0.77670    0.36940    0.44510    1.000
    H262     H        0.75240    0.34830    0.42920    1.000
    C291     C        0.80280    0.30950    0.46640    1.000
    C292     C        0.83710    0.34370    0.49200    1.000
    H263     H        0.85550    0.30280    0.50820    1.000
    C293     C        0.84430    0.43730    0.49400    1.000
    H264     H        0.86760    0.46120    0.51090    1.000
    C294     C        0.75640    0.08510    0.44660    1.000
    C295     C        0.80700    0.07900    0.50490    1.000
    C296     C        0.79340    0.20790    0.46870    1.000
    C297     C        0.90700    0.99100    0.72840    1.000
    H265     H        0.88800    0.94720    0.73170    1.000
    C298     C        0.90990    0.07200    0.75280    1.000
    H266     H        0.89080    0.08790    0.76870    1.000
    C299     C        0.94150    0.12700    0.75280    1.000
    C300     C        0.96540    0.10450    0.72820    1.000
    H267     H        0.98740    0.14120    0.72730    1.000
    C301     C        0.95800    0.02680    0.70340    1.000
    H268     H        0.97560    0.00960    0.68570    1.000
    C302     C        0.88950    0.38700    0.92580    1.000
    H269     H        0.89680    0.43230    0.94760    1.000
    C303     C        0.91150    0.37600    0.89530    1.000
    H270     H        0.93270    0.41650    0.89580    1.000
    C304     C        0.90500    0.31180    0.86530    1.000
    C305     C        0.87070    0.26140    0.86300    1.000
    H271     H        0.86190    0.21800    0.84070    1.000
    C306     C        0.84980    0.28020    0.89670    1.000
    H272     H        0.82700    0.24560    0.89690    1.000
    C307     C        0.06320    0.45980    0.77430    1.000
    H273     H        0.07470    0.46530    0.74980    1.000
    C308     C        0.03200    0.40520    0.77250    1.000
    H274     H        0.02230    0.37190    0.74670    1.000
    C309     C        0.01360    0.39630    0.80680    1.000
    C310     C        0.02930    0.43790    0.84410    1.000
    H275     H        0.01850    0.43090    0.86910    1.000
    C311     C        0.06290    0.49290    0.84520    1.000
    H276     H        0.07480    0.52090    0.87170    1.000
    C312     C        0.94690    0.20850    0.78240    1.000
    C313     C        0.92950    0.29410    0.83550    1.000
    C314     C        0.98030    0.33330    0.80630    1.000
    C315     C        0.78580    0.52210    0.94880    1.000
    H277     H        0.76800    0.48000    0.93270    1.000
    C316     C        0.77700    0.61850    0.94550    1.000
    H278     H        0.75450    0.64020    0.92600    1.000
    C317     C        0.80200    0.67860    0.97140    1.000
    C318     C        0.83590    0.64450    0.99580    1.000
    H279     H        0.85450    0.68340    0.01300    1.000
    C319     C        0.84180    0.55160    0.99440    1.000
    H280     H        0.86580    0.52900    0.01020    1.000
    C320     C        0.88280    0.96960    0.10390    1.000
    H281     H        0.90280    0.93920    0.12360    1.000
    C321     C        0.86120    0.91930    0.06920    1.000
    H282     H        0.86730    0.85770    0.06410    1.000
    C322     C        0.83030    0.96430    0.04270    1.000
    C323     C        0.82490    0.05470    0.04920    1.000
    H283     H        0.80480    0.08690    0.03040    1.000
    C324     C        0.84840    0.09960    0.08290    1.000
    H284     H        0.84460    0.16310    0.08670    1.000
    C325     C        0.68660    0.07430    0.89540    1.000
    H285     H        0.68160    0.13740    0.89860    1.000
    C326     C        0.71630    0.03500    0.92520    1.000
    H286     H        0.73120    0.06960    0.94810    1.000
    C327     C        0.72320    0.94500    0.92040    1.000
    C328     C        0.69940    0.89630    0.88640    1.000
    H287     H        0.70270    0.83270    0.88250    1.000
    C329     C        0.67080    0.94600    0.85880    1.000
    H288     H        0.65480    0.91450    0.83550    1.000
    C330     C        0.79380    0.77710    0.97210    1.000
    C331     C        0.80630    0.91250    0.00750    1.000
    C332     C        0.75650    0.89880    0.95140    1.000
    N65      N        0.36200    0.15260    0.43170    1.000
    N66      N        0.57560    0.97640    0.31220    1.000
    N67      N        0.42930    0.51280    0.20010    1.000
    N68      N        0.45860    0.13800    0.33850    1.000
    N69      N        0.47410    0.22170    0.27950    1.000
    N70      N        0.42280    0.26710    0.31090    1.000
    N71      N        0.66340    0.95250    0.36280    1.000
    N72      N        0.87440    0.93330    0.61040    1.000
    N73      N        0.81640    0.49410    0.47060    1.000
    N74      N        0.77480    0.03590    0.48050    1.000
    N75      N        0.81640    0.16190    0.50090    1.000
    N76      N        0.76380    0.17420    0.44000    1.000
    N77      N        0.92780    0.97620    0.70340    1.000
    N78      N        0.85960    0.33920    0.92580    1.000
    N79      N        0.07810    0.50690    0.81120    1.000
    N80      N        0.92420    0.21790    0.81070    1.000
    N81      N        0.95970    0.35220    0.83430    1.000
    N82      N        0.97430    0.26880    0.77710    1.000
    N83      N        0.81750    0.49120    0.97330    1.000
    N84      N        0.87670    0.05600    0.11060    1.000
    N85      N        0.66490    0.03070    0.86300    1.000
    N86      N        0.81740    0.82410    0.00280    1.000
    N87      N        0.77700    0.95350    0.98190    1.000
    N88      N        0.76300    0.81200    0.94450    1.000
    C333     C        0.76110    0.65400    0.83900    1.000
    N89      N        0.78550    0.58530    0.82980    1.000
    N90      N        0.72730    0.62200    0.84550    1.000
    C334     C        0.76350    0.49700    0.82830    1.000
    C335     C        0.72870    0.52900    0.83850    1.000
    C336     C        0.70260    0.46800    0.84130    1.000
    H289     H        0.67860    0.48400    0.84840    1.000
    C337     C        0.71060    0.38200    0.83390    1.000
    H290     H        0.69130    0.33870    0.83680    1.000
    C338     C        0.74420    0.34600    0.82230    1.000
    H291     H        0.74760    0.28360    0.81530    1.000
    C339     C        0.77250    0.41600    0.82250    1.000
    H292     H        0.79770    0.40180    0.81820    1.000
    C340     C        0.77350    0.74700    0.84380    1.000
    N91      N        0.74730    0.81900    0.81940    1.000
    N92      N        0.80610    0.77000    0.87090    1.000
    C341     C        0.77060    0.89900    0.83650    1.000
    C342     C        0.80270    0.86900    0.86670    1.000
    C343     C        0.82850    0.93200    0.88950    1.000
    H293     H        0.85050    0.91210    0.91020    1.000
    C344     C        0.82210    0.02510    0.88210    1.000
    H294     H        0.83980    0.06840    0.89770    1.000
    C345     C        0.79000    0.05470    0.85190    1.000
    H295     H        0.78570    0.11820    0.84690    1.000
    C346     C        0.76420    0.99100    0.82910    1.000
    H296     H        0.74230    0.01160    0.80840    1.000
    C347     C        0.82280    0.59900    0.81440    1.000
    H297     H        0.83850    0.54260    0.81960    1.000
    H298     H        0.83780    0.64900    0.83120    1.000
    C348     C        0.81500    0.62300    0.76610    1.000
    H299     H        0.84010    0.62850    0.75700    1.000
    H300     H        0.80050    0.57180    0.74950    1.000
    C349     C        0.79450    0.70100    0.75610    1.000
    H301     H        0.80940    0.75590    0.75850    1.000
    C350     C        0.75190    0.71300    0.74200    1.000
    H302     H        0.73700    0.66200    0.72980    1.000
    C351     C        0.73130    0.80000    0.74570    1.000
    H303     H        0.70850    0.80330    0.72150    1.000
    H304     H        0.74870    0.85120    0.74270    1.000
    C352     C        0.71810    0.81000    0.78730    1.000
    H305     H        0.70100    0.86360    0.78570    1.000
    H306     H        0.70290    0.75500    0.79200    1.000
    C353     C        0.95800    0.01200    0.00400    1.000
    H307     H        0.98210    0.04690    0.00410    1.000
    H308     H        0.96080    0.97800    0.03100    1.000
    C354     C        0.92300    0.08000    0.99940    1.000
    H309     H        0.89880    0.04580    0.99660    1.000
    H310     H        0.92680    0.11940    0.02530    1.000
    C355     C        0.92300    0.13700    0.95900    1.000
    H311     H        0.94800    0.17000    0.96160    1.000
    H312     H        0.90200    0.18320    0.95550    1.000
    C356     C        0.91700    0.07400    0.91930    1.000
    H313     H        0.89030    0.04710    0.91530    1.000
    H314     H        0.91760    0.11070    0.89330    1.000
    C357     C        0.94600    0.99600    0.92200    1.000
    H315     H        0.93730    0.95310    0.89820    1.000
    H316     H        0.97130    0.02170    0.91950    1.000
    C358     C        0.95100    0.94500    0.96500    1.000
    H317     H        0.97320    0.90260    0.96790    1.000
    H318     H        0.92740    0.90830    0.96530    1.000
    C359     C        0.05300    0.79800    0.20900    1.000
    H319     H        0.04520    0.83210    0.23290    1.000
    H320     H        0.08170    0.79140    0.21590    1.000
    C360     C        0.03300    0.70400    0.20300    1.000
    H321     H        0.00490    0.71040    0.19590    1.000
    H322     H        0.04080    0.66700    0.22970    1.000
    C361     C        0.04800    0.65800    0.16500    1.000
    H323     H        0.07590    0.67190    0.16660    1.000
    H324     H        0.04460    0.59120    0.16510    1.000
    C362     C        0.02300    0.70200    0.12500    1.000
    H325     H        0.00090    0.66070    0.11260    1.000
    H326     H        0.03800    0.71330    0.10260    1.000
    C363     C        0.00690    0.79300    0.13900    1.000
    H327     H        0.98700    0.78010    0.15600    1.000
    H328     H        0.99450    0.82790    0.11280    1.000
    C364     C        0.04000    0.84900    0.16600    1.000
    H329     H        0.06180    0.85440    0.15080    1.000
    H330     H        0.03090    0.91110    0.17120    1.000
    I61      I        0.26918    0.22770    0.45640    1.000
    I62      I        0.37370    0.15440    0.55030    1.000
    I63      I        0.64420    0.90130    0.24570    1.000
    I64      I        0.60980    0.72900    0.34150    1.000
    Zn25     Zn       0.90740    0.87600    0.65730    1.000
    I65      I        0.96680    0.81980    0.62960    1.000
    I66      I        0.86700    0.76100    0.69340    1.000
    Zn26     Zn       0.83170    0.35520    0.97790    1.000
    I67      I        0.77113    0.26010    0.95621    1.000
    I68      I        0.88070    0.33270    0.04793    1.000
    I69      I        0.96950    0.14550    0.12390    1.000
    I70      I        0.87750    0.23320    0.19240    1.000
    Zn27     Zn       0.62510    0.11420    0.81660    1.000
    I71      I        0.64990    0.09840    0.74230    1.000
    I72      I        0.60530    0.23140    0.84380    1.000
    C365     C        0.85010    0.95200    0.90600    1.000
    N93      N        0.86150    0.94100    0.86440    1.000
    N94      N        0.82150    0.99800    0.90400    1.000
    C366     C        0.83120    0.99700    0.83660    1.000
    C367     C        0.80570    0.02500    0.86210    1.000
    C368     C        0.77290    0.07600    0.84400    1.000
    H331     H        0.75550    0.09490    0.86150    1.000
    C369     C        0.76570    0.09800    0.80000    1.000
    H332     H        0.74330    0.13250    0.78790    1.000
    C370     C        0.79110    0.07000    0.77470    1.000
    H333     H        0.78620    0.08520    0.74490    1.000
    C371     C        0.82390    0.02000    0.79290    1.000
    H334     H        0.84130    0.00030    0.77540    1.000
    C372     C        0.87760    0.91000    0.94100    1.000
    N95      N        0.89230    0.95700    0.97880    1.000
    N96      N        0.88560    0.82300    0.94240    1.000
    C373     C        0.91850    0.88600    0.01180    1.000
    C374     C        0.91350    0.80800    0.98620    1.000
    C375     C        0.93220    0.72800    0.00170    1.000
    H335     H        0.92880    0.67440    0.98420    1.000
    C376     C        0.95580    0.72500    0.04280    1.000
    H336     H        0.96860    0.67010    0.05340    1.000
    C377     C        0.96080    0.80300    0.06840    1.000
    H337     H        0.97690    0.80140    0.09650    1.000
    C378     C        0.94210    0.88400    0.05290    1.000
    H338     H        0.94550    0.93710    0.07040    1.000
    C379     C        0.89910    0.90900    0.85600    1.000
    H339     H        0.91010    0.86180    0.87690    1.000
    H340     H        0.89490    0.88200    0.82630    1.000
    C380     C        0.92600    0.98300    0.85800    1.000
    H341     H        0.94860    0.96260    0.84750    1.000
    H342     H        0.91330    0.03340    0.83960    1.000
    C381     C        0.93600    0.01200    0.89700    1.000
    H343     H        0.95820    0.97500    0.90880    1.000
    C382     C        0.93300    0.06300    0.92800    1.000
    H344     H        0.94180    0.11790    0.91740    1.000
    C383     C        0.92500    0.10400    0.97400    1.000
    H345     H        0.94990    0.10270    0.99590    1.000
    H346     H        0.91740    0.16880    0.96950    1.000
    C384     C        0.89500    0.05500    0.99200    1.000
    H347     H        0.90160    0.05850    0.02440    1.000
    H348     H        0.86960    0.08490    0.98230    1.000
    C385     C        0.70700    0.35000    0.82850    1.000
    H349     H        0.72110    0.32590    0.80720    1.000
    H350     H        0.67980    0.32660    0.82090    1.000
    C386     C        0.72630    0.31700    0.87460    1.000
    H351     H        0.72330    0.25010    0.87650    1.000
    H352     H        0.75430    0.33120    0.88020    1.000
    C387     C        0.70800    0.36400    0.90900    1.000
    H353     H        0.72470    0.41350    0.92390    1.000
    H354     H        0.70260    0.31990    0.93070    1.000
    C388     C        0.66900    0.40400    0.88200    1.000
    H355     H        0.65570    0.35810    0.86120    1.000
    H356     H        0.65170    0.42300    0.90110    1.000
    C389     C        0.68100    0.48800    0.85700    1.000
    H357     H        0.65750    0.51930    0.84090    1.000
    H358     H        0.69580    0.53230    0.87810    1.000
    C390     C        0.70600    0.45500    0.82600    1.000
    H359     H        0.69470    0.47500    0.79630    1.000
    H360     H        0.73260    0.47930    0.83470    1.000
    Zn28     Zn       0.83028    0.63331    0.47890    1.000
    Zn29     Zn       0.12138    0.38658    0.31820    1.000
    Zn30     Zn       0.41737    0.62215    0.15834    1.000
    I73      I        0.77380    0.71740    0.45940    1.000
    I74      I        0.87521    0.64420    0.55480    1.000
    I75      I        0.14524    0.37880    0.24952    1.000
    I76      I        0.09785    0.25577    0.35812    1.000
    Zn31     Zn       0.41810    0.36230    0.65830    1.000
    I77      I        0.47403    0.34610    0.62191    1.000
    I78      I        0.38229    0.25080    0.69370    1.000
    Zn32     Zn       0.31990    0.85040    0.96620    1.000
    I79      I        0.25750    0.76950    0.94110    1.000
    I80      I        0.36850    0.81260    0.03650    1.000
    I81      I        0.48090    0.64710    0.12610    1.000
    I82      I        0.38736    0.73650    0.20020    1.000
    Zn33     Zn       0.12350    0.58680    0.81590    1.000
    I83      I        0.14830    0.58850    0.74970    1.000
    I84      I        0.10465    0.73830    0.85360    1.000
    C391     C        0.85010    0.69800    0.39430    1.000
    H361     H        0.82420    0.72100    0.38840    1.000
    C392     C        0.87130    0.71470    0.36510    1.000
    H362     H        0.86100    0.74990    0.34010    1.000
    C393     C        0.90650    0.68150    0.37100    1.000
    C394     C        0.91980    0.62900    0.40600    1.000
    H363     H        0.94510    0.60360    0.41150    1.000
    C395     C        0.89390    0.61400    0.43390    1.000
    H364     H        0.90130    0.56970    0.45620    1.000
    C396     C        0.06260    0.52610    0.27960    1.000
    H365     H        0.07490    0.52220    0.25560    1.000
    C397     C        0.03070    0.58770    0.27640    1.000
    H366     H        0.02210    0.62320    0.25100    1.000
    C398     C        0.01380    0.59390    0.30910    1.000
    C399     C        0.03040    0.54400    0.34610    1.000
    H367     H        0.02290    0.55460    0.37290    1.000
    C400     C        0.05720    0.48200    0.34240    1.000
    H368     H        0.06310    0.43830    0.36480    1.000
    C401     C        0.90270    0.98660    0.22310    1.000
    H369     H        0.87990    0.02250    0.22070    1.000
    C402     C        0.90680    0.91010    0.24980    1.000
    H370     H        0.88650    0.89260    0.26380    1.000
    C403     C        0.93980    0.86120    0.25570    1.000
    C404     C        0.96770    0.88660    0.23120    1.000
    H371     H        0.99050    0.85110    0.23320    1.000
    C405     C        0.96200    0.96100    0.20500    1.000
    H372     H        0.98150    0.97740    0.18970    1.000
    C406     C        0.93120    0.69730    0.33700    1.000
    C407     C        0.97960    0.65200    0.30670    1.000
    C408     C        0.94510    0.77610    0.28290    1.000
    C409     C        0.18430    0.40920    0.39790    1.000
    H373     H        0.17810    0.34810    0.40390    1.000
    C410     C        0.21290    0.45060    0.42350    1.000
    H374     H        0.22680    0.41760    0.44770    1.000
    C411     C        0.22440    0.54040    0.41780    1.000
    C412     C        0.20370    0.58270    0.38110    1.000
    H375     H        0.21020    0.64330    0.37460    1.000
    C413     C        0.17500    0.54020    0.35520    1.000
    H376     H        0.16160    0.57130    0.33010    1.000
    C414     C        0.34710    0.39230    0.58270    1.000
    H377     H        0.34350    0.32870    0.58640    1.000
    C415     C        0.32350    0.43420    0.54910    1.000
    H378     H        0.30310    0.40130    0.53120    1.000
    C416     C        0.32970    0.52830    0.54100    1.000
    C417     C        0.35740    0.56940    0.57160    1.000
    H379     H        0.36130    0.63330    0.56980    1.000
    C418     C        0.37840    0.52450    0.60260    1.000
    H380     H        0.39830    0.55690    0.62160    1.000
    C419     C        0.28490    0.95880    0.44630    1.000
    H381     H        0.26710    0.99880    0.42870    1.000
    C420     C        0.27670    0.86940    0.44510    1.000
    H382     H        0.25240    0.84830    0.42920    1.000
    C421     C        0.30280    0.80950    0.46640    1.000
    C422     C        0.33710    0.84370    0.49200    1.000
    H383     H        0.35550    0.80280    0.50820    1.000
    C423     C        0.34430    0.93730    0.49400    1.000
    H384     H        0.36760    0.96120    0.51090    1.000
    C424     C        0.25640    0.58510    0.44660    1.000
    C425     C        0.30700    0.57900    0.50490    1.000
    C426     C        0.29340    0.70790    0.46870    1.000
    C427     C        0.40700    0.49100    0.72840    1.000
    H385     H        0.38800    0.44720    0.73170    1.000
    C428     C        0.40990    0.57200    0.75280    1.000
    H386     H        0.39080    0.58790    0.76870    1.000
    C429     C        0.44150    0.62700    0.75280    1.000
    C430     C        0.46540    0.60450    0.72820    1.000
    H387     H        0.48740    0.64120    0.72730    1.000
    C431     C        0.45800    0.52680    0.70340    1.000
    H388     H        0.47560    0.50960    0.68570    1.000
    C432     C        0.38950    0.88700    0.92580    1.000
    H389     H        0.39680    0.93230    0.94760    1.000
    C433     C        0.41150    0.87600    0.89530    1.000
    H390     H        0.43270    0.91650    0.89580    1.000
    C434     C        0.40500    0.81180    0.86530    1.000
    C435     C        0.37070    0.76140    0.86300    1.000
    H391     H        0.36190    0.71800    0.84070    1.000
    C436     C        0.34980    0.78020    0.89670    1.000
    H392     H        0.32700    0.74560    0.89690    1.000
    C437     C        0.56320    0.95980    0.77430    1.000
    H393     H        0.57470    0.96530    0.74980    1.000
    C438     C        0.53200    0.90520    0.77250    1.000
    H394     H        0.52230    0.87190    0.74670    1.000
    C439     C        0.51360    0.89630    0.80680    1.000
    C440     C        0.52930    0.93790    0.84410    1.000
    H395     H        0.51850    0.93090    0.86910    1.000
    C441     C        0.56290    0.99290    0.84520    1.000
    H396     H        0.57480    0.02090    0.87170    1.000
    C442     C        0.44690    0.70850    0.78240    1.000
    C443     C        0.42950    0.79410    0.83550    1.000
    C444     C        0.48030    0.83330    0.80630    1.000
    C445     C        0.28580    0.02210    0.94880    1.000
    H397     H        0.26800    0.98000    0.93270    1.000
    C446     C        0.27700    0.11850    0.94550    1.000
    H398     H        0.25450    0.14020    0.92600    1.000
    C447     C        0.30200    0.17860    0.97140    1.000
    C448     C        0.33590    0.14450    0.99580    1.000
    H399     H        0.35450    0.18340    0.01300    1.000
    C449     C        0.34180    0.05160    0.99440    1.000
    H400     H        0.36580    0.02900    0.01020    1.000
    C450     C        0.38280    0.46960    0.10390    1.000
    H401     H        0.40280    0.43920    0.12360    1.000
    C451     C        0.36120    0.41930    0.06920    1.000
    H402     H        0.36730    0.35770    0.06410    1.000
    C452     C        0.33030    0.46430    0.04270    1.000
    C453     C        0.32490    0.55470    0.04920    1.000
    H403     H        0.30480    0.58690    0.03040    1.000
    C454     C        0.34840    0.59960    0.08290    1.000
    H404     H        0.34460    0.66310    0.08670    1.000
    C455     C        0.18660    0.57430    0.89540    1.000
    H405     H        0.18160    0.63740    0.89860    1.000
    C456     C        0.21630    0.53500    0.92520    1.000
    H406     H        0.23120    0.56960    0.94810    1.000
    C457     C        0.22320    0.44500    0.92040    1.000
    C458     C        0.19940    0.39630    0.88640    1.000
    H407     H        0.20270    0.33270    0.88250    1.000
    C459     C        0.17080    0.44600    0.85880    1.000
    H408     H        0.15480    0.41450    0.83550    1.000
    C460     C        0.29380    0.27710    0.97210    1.000
    C461     C        0.30630    0.41250    0.00750    1.000
    C462     C        0.25650    0.39880    0.95140    1.000
    N97      N        0.86200    0.65260    0.43170    1.000
    N98      N        0.07560    0.47640    0.31220    1.000
    N99      N        0.92930    0.01280    0.20010    1.000
    N100     N        0.95860    0.63800    0.33850    1.000
    N101     N        0.97410    0.72170    0.27950    1.000
    N102     N        0.92280    0.76710    0.31090    1.000
    N103     N        0.16340    0.45250    0.36280    1.000
    N104     N        0.37440    0.43330    0.61040    1.000
    N105     N        0.31640    0.99410    0.47060    1.000
    N106     N        0.27480    0.53590    0.48050    1.000
    N107     N        0.31640    0.66190    0.50090    1.000
    N108     N        0.26380    0.67420    0.44000    1.000
    N109     N        0.42780    0.47620    0.70340    1.000
    N110     N        0.35960    0.83920    0.92580    1.000
    N111     N        0.57810    0.00690    0.81120    1.000
    N112     N        0.42420    0.71790    0.81070    1.000
    N113     N        0.45970    0.85220    0.83430    1.000
    N114     N        0.47430    0.76880    0.77710    1.000
    N115     N        0.31750    0.99120    0.97330    1.000
    N116     N        0.37670    0.55600    0.11060    1.000
    N117     N        0.16490    0.53070    0.86300    1.000
    N118     N        0.31740    0.32410    0.00280    1.000
    N119     N        0.27700    0.45350    0.98190    1.000
    N120     N        0.26300    0.31200    0.94450    1.000
    C463     C        0.26110    0.15400    0.83900    1.000
    N121     N        0.28550    0.08530    0.82980    1.000
    N122     N        0.22730    0.12200    0.84550    1.000
    C464     C        0.26350    0.99700    0.82830    1.000
    C465     C        0.22870    0.02900    0.83850    1.000
    C466     C        0.20260    0.96800    0.84130    1.000
    H409     H        0.17860    0.98400    0.84840    1.000
    C467     C        0.21060    0.88200    0.83390    1.000
    H410     H        0.19130    0.83870    0.83680    1.000
    C468     C        0.24420    0.84600    0.82230    1.000
    H411     H        0.24760    0.78360    0.81530    1.000
    C469     C        0.27250    0.91600    0.82250    1.000
    H412     H        0.29770    0.90180    0.81820    1.000
    C470     C        0.27350    0.24700    0.84380    1.000
    N123     N        0.24730    0.31900    0.81940    1.000
    N124     N        0.30610    0.27000    0.87090    1.000
    C471     C        0.27060    0.39900    0.83650    1.000
    C472     C        0.30270    0.36900    0.86670    1.000
    C473     C        0.32850    0.43200    0.88950    1.000
    H413     H        0.35050    0.41210    0.91020    1.000
    C474     C        0.32210    0.52510    0.88210    1.000
    H414     H        0.33980    0.56840    0.89770    1.000
    C475     C        0.29000    0.55470    0.85190    1.000
    H415     H        0.28570    0.61820    0.84690    1.000
    C476     C        0.26420    0.49100    0.82910    1.000
    H416     H        0.24230    0.51160    0.80840    1.000
    C477     C        0.32280    0.09900    0.81440    1.000
    H417     H        0.33850    0.04260    0.81960    1.000
    H418     H        0.33780    0.14900    0.83120    1.000
    C478     C        0.31500    0.12300    0.76610    1.000
    H419     H        0.34010    0.12850    0.75700    1.000
    H420     H        0.30050    0.07180    0.74950    1.000
    C479     C        0.29450    0.20100    0.75610    1.000
    H421     H        0.30940    0.25590    0.75850    1.000
    C480     C        0.25190    0.21300    0.74200    1.000
    H422     H        0.23700    0.16200    0.72980    1.000
    C481     C        0.23130    0.30000    0.74570    1.000
    H423     H        0.20850    0.30330    0.72150    1.000
    H424     H        0.24870    0.35120    0.74270    1.000
    C482     C        0.21810    0.31000    0.78730    1.000
    H425     H        0.20100    0.36360    0.78570    1.000
    H426     H        0.20290    0.25500    0.79200    1.000
    C483     C        0.45800    0.51200    0.00400    1.000
    H427     H        0.48210    0.54690    0.00410    1.000
    H428     H        0.46080    0.47800    0.03100    1.000
    C484     C        0.42300    0.58000    0.99940    1.000
    H429     H        0.39880    0.54580    0.99660    1.000
    H430     H        0.42680    0.61940    0.02530    1.000
    C485     C        0.42300    0.63700    0.95900    1.000
    H431     H        0.44800    0.67000    0.96160    1.000
    H432     H        0.40200    0.68320    0.95550    1.000
    C486     C        0.41700    0.57400    0.91930    1.000
    H433     H        0.39030    0.54710    0.91530    1.000
    H434     H        0.41760    0.61070    0.89330    1.000
    C487     C        0.44600    0.49600    0.92200    1.000
    H435     H        0.43730    0.45310    0.89820    1.000
    H436     H        0.47130    0.52170    0.91950    1.000
    C488     C        0.45100    0.44500    0.96500    1.000
    H437     H        0.47320    0.40260    0.96790    1.000
    H438     H        0.42740    0.40830    0.96530    1.000
    C489     C        0.55300    0.29800    0.20900    1.000
    H439     H        0.54520    0.33210    0.23290    1.000
    H440     H        0.58170    0.29140    0.21590    1.000
    C490     C        0.53300    0.20400    0.20300    1.000
    H441     H        0.50490    0.21040    0.19590    1.000
    H442     H        0.54080    0.16700    0.22970    1.000
    C491     C        0.54800    0.15800    0.16500    1.000
    H443     H        0.57590    0.17190    0.16660    1.000
    H444     H        0.54460    0.09120    0.16510    1.000
    C492     C        0.52300    0.20200    0.12500    1.000
    H445     H        0.50090    0.16070    0.11260    1.000
    H446     H        0.53800    0.21330    0.10260    1.000
    C493     C        0.50690    0.29300    0.13900    1.000
    H447     H        0.48700    0.28010    0.15600    1.000
    H448     H        0.49450    0.32790    0.11280    1.000
    C494     C        0.54000    0.34900    0.16600    1.000
    H449     H        0.56180    0.35440    0.15080    1.000
    H450     H        0.53090    0.41110    0.17120    1.000
    I85      I        0.76918    0.72770    0.45640    1.000
    I86      I        0.87370    0.65440    0.55030    1.000
    I87      I        0.14420    0.40130    0.24570    1.000
    I88      I        0.10980    0.22900    0.34150    1.000
    Zn34     Zn       0.40740    0.37600    0.65730    1.000
    I89      I        0.46680    0.31980    0.62960    1.000
    I90      I        0.36700    0.26100    0.69340    1.000
    Zn35     Zn       0.33170    0.85520    0.97790    1.000
    I91      I        0.27113    0.76010    0.95621    1.000
    I92      I        0.38070    0.83270    0.04793    1.000
    I93      I        0.46950    0.64550    0.12390    1.000
    I94      I        0.37750    0.73320    0.19240    1.000
    Zn36     Zn       0.12510    0.61420    0.81660    1.000
    I95      I        0.14990    0.59840    0.74230    1.000
    I96      I        0.10530    0.73140    0.84380    1.000
    C495     C        0.35010    0.45200    0.90600    1.000
    N125     N        0.36150    0.44100    0.86440    1.000
    N126     N        0.32150    0.49800    0.90400    1.000
    C496     C        0.33120    0.49700    0.83660    1.000
    C497     C        0.30570    0.52500    0.86210    1.000
    C498     C        0.27290    0.57600    0.84400    1.000
    H451     H        0.25550    0.59490    0.86150    1.000
    C499     C        0.26570    0.59800    0.80000    1.000
    H452     H        0.24330    0.63250    0.78790    1.000
    C500     C        0.29110    0.57000    0.77470    1.000
    H453     H        0.28620    0.58520    0.74490    1.000
    C501     C        0.32390    0.52000    0.79290    1.000
    H454     H        0.34130    0.50030    0.77540    1.000
    C502     C        0.37760    0.41000    0.94100    1.000
    N127     N        0.39230    0.45700    0.97880    1.000
    N128     N        0.38560    0.32300    0.94240    1.000
    C503     C        0.41850    0.38600    0.01180    1.000
    C504     C        0.41350    0.30800    0.98620    1.000
    C505     C        0.43220    0.22800    0.00170    1.000
    H455     H        0.42880    0.17440    0.98420    1.000
    C506     C        0.45580    0.22500    0.04280    1.000
    H456     H        0.46860    0.17010    0.05340    1.000
    C507     C        0.46080    0.30300    0.06840    1.000
    H457     H        0.47690    0.30140    0.09650    1.000
    C508     C        0.44210    0.38400    0.05290    1.000
    H458     H        0.44550    0.43710    0.07040    1.000
    C509     C        0.39910    0.40900    0.85600    1.000
    H459     H        0.41010    0.36180    0.87690    1.000
    H460     H        0.39490    0.38200    0.82630    1.000
    C510     C        0.42600    0.48300    0.85800    1.000
    H461     H        0.44860    0.46260    0.84750    1.000
    H462     H        0.41330    0.53340    0.83960    1.000
    C511     C        0.43600    0.51200    0.89700    1.000
    H463     H        0.45820    0.47500    0.90880    1.000
    C512     C        0.43300    0.56300    0.92800    1.000
    H464     H        0.44180    0.61790    0.91740    1.000
    C513     C        0.42500    0.60400    0.97400    1.000
    H465     H        0.44990    0.60270    0.99590    1.000
    H466     H        0.41740    0.66880    0.96950    1.000
    C514     C        0.39500    0.55500    0.99200    1.000
    H467     H        0.40160    0.55850    0.02440    1.000
    H468     H        0.36960    0.58490    0.98230    1.000
    C515     C        0.20700    0.85000    0.82850    1.000
    H469     H        0.22110    0.82590    0.80720    1.000
    H470     H        0.17980    0.82660    0.82090    1.000
    C516     C        0.22630    0.81700    0.87460    1.000
    H471     H        0.22330    0.75010    0.87650    1.000
    H472     H        0.25430    0.83120    0.88020    1.000
    C517     C        0.20800    0.86400    0.90900    1.000
    H473     H        0.22470    0.91350    0.92390    1.000
    H474     H        0.20260    0.81990    0.93070    1.000
    C518     C        0.16900    0.90400    0.88200    1.000
    H475     H        0.15570    0.85810    0.86120    1.000
    H476     H        0.15170    0.92300    0.90110    1.000
    C519     C        0.18100    0.98800    0.85700    1.000
    H477     H        0.15750    0.01930    0.84090    1.000
    H478     H        0.19580    0.03230    0.87810    1.000
    C520     C        0.20600    0.95500    0.82600    1.000
    H479     H        0.19470    0.97500    0.79630    1.000
    H480     H        0.23260    0.97930    0.83470    1.000
