# CIF file generated by openbabel 3.1.0, see https://openbabel.org
data_I
_chemical_name_common 'image0'
_cell_length_a 18.633
_cell_length_b 20.399
_cell_length_c 20.852
_cell_angle_alpha 90
_cell_angle_beta 90
_cell_angle_gamma 90
_space_group_name_H-M_alt 'P 1'
_space_group_name_Hall 'P 1'
loop_
    _symmetry_equiv_pos_as_xyz
    x,y,z
loop_
    _atom_site_label
    _atom_site_type_symbol
    _atom_site_fract_x
    _atom_site_fract_y
    _atom_site_fract_z
    _atom_site_occupancy
    Cd1      Cd       0.82775    0.87196    0.38654    1.000
    Cd2      Cd       0.68851    0.16329    0.36463    1.000
    Cd3      Cd       0.75538    0.03662    0.46170    1.000
    Cd4      Cd       0.19579    0.08593    0.11856    1.000
    O1       O        0.67677    0.04346    0.37290    1.000
    O2       O        0.57660    0.09896    0.37070    1.000
    O3       O        0.16496    0.49108    0.11468    1.000
    O4       O        0.06620    0.43427    0.11600    1.000
    O5       O        0.82940    0.89327    0.26350    1.000
    O6       O        0.85500    0.79870    0.30693    1.000
    O7       O        0.70915    0.87700    0.37340    1.000
    O8       O        0.70070    0.93835    0.46129    1.000
    O9       O        0.80510    0.90210    0.02780    1.000
    O10      O        0.84530    0.81860    0.96730    1.000
    O11      O        0.67900    0.49390    0.96080    1.000
    O12      O        0.78950    0.46340    0.95090    1.000
    O13      O        0.20530    0.84290    0.44760    1.000
    O14      O        0.12620    0.89450    0.38670    1.000
    H1       H        0.09700    0.87390    0.41070    1.000
    O15      O        0.30690    0.05860    0.19600    1.000
    O16      O        0.32570    0.64240    0.25570    1.000
    O17      O        0.69790    0.68360    0.20470    1.000
    O18      O        0.61350    0.63890    0.14290    1.000
    H2       H        0.58600    0.66040    0.16770    1.000
    O19      O        0.19050    0.63320    0.18720    1.000
    O20      O        0.35960    0.71309    0.54672    1.000
    O21      O        0.35270    0.62120    0.49600    1.000
    O22      O        0.38040    0.72250    0.20740    1.000
    O23      O        0.20000    0.62760    0.08430    1.000
    O24      O        0.20000    0.01850    0.20030    1.000
    C1       C        0.55420    0.86830    0.39680    1.000
    H3       H        0.57480    0.82830    0.40760    1.000
    C2       C        0.56700    0.98390    0.38110    1.000
    C3       C        0.49330    0.98630    0.36610    1.000
    H4       H        0.47270    0.02640    0.35590    1.000
    C4       C        0.45020    0.93000    0.36620    1.000
    C5       C        0.48120    0.87040    0.38210    1.000
    C6       C        0.60790    0.04650    0.37550    1.000
    C7       C        0.44130    0.80700    0.38110    1.000
    C8       C        0.42090    0.78100    0.32240    1.000
    H5       H        0.43160    0.80310    0.28460    1.000
    C9       C        0.38360    0.72020    0.32040    1.000
    C10      C        0.36770    0.68760    0.37690    1.000
    H6       H        0.34420    0.64740    0.37570    1.000
    C11      C        0.42360    0.77410    0.43790    1.000
    H7       H        0.43650    0.79180    0.47730    1.000
    C12      C        0.09730    0.48770    0.11430    1.000
    C13      C        0.85010    0.83450    0.25860    1.000
    C14      C        0.86680    0.80670    0.19570    1.000
    C15      C        0.84310    0.83770    0.13930    1.000
    H8       H        0.81640    0.87610    0.14220    1.000
    C16      C        0.90780    0.74970    0.19000    1.000
    H9       H        0.92570    0.72960    0.22680    1.000
    C17      C        0.92220    0.72220    0.12970    1.000
    C18      C        0.89750    0.75350    0.07540    1.000
    H10      H        0.90690    0.73520    0.03540    1.000
    C19      C        0.96570    0.66010    0.12500    1.000
    C20      C        0.93550    0.59910    0.10900    1.000
    C21      C        0.97940    0.54550    0.10760    1.000
    H11      H        0.95910    0.50460    0.09970    1.000
    C22      C        0.85900    0.81140    0.07900    1.000
    C23      C        0.83460    0.84730    0.02010    1.000
    C24      C        0.80470    0.62070    0.13250    1.000
    H12      H        0.81820    0.64760    0.16650    1.000
    C25      C        0.73240    0.61180    0.11940    1.000
    C26      C        0.71210    0.57250    0.06760    1.000
    H13      H        0.66380    0.56780    0.05770    1.000
    C27      C        0.76340    0.54040    0.03070    1.000
    C28      C        0.83570    0.55070    0.04460    1.000
    H14      H        0.87030    0.53070    0.01910    1.000
    C29      C        0.37270    0.93720    0.34840    1.000
    C30      C        0.31970    0.90630    0.38460    1.000
    H15      H        0.33180    0.88180    0.42060    1.000
    C31      C        0.24730    0.91280    0.36560    1.000
    C32      C        0.22950    0.95060    0.31350    1.000
    H16      H        0.18160    0.95540    0.30180    1.000
    C33      C        0.28220    0.98140    0.27850    1.000
    C34      C        0.67640    0.91400    0.41180    1.000
    C35      C        0.35360    0.97480    0.29690    1.000
    H17      H        0.38900    0.99640    0.27370    1.000
    C36      C        0.03910    0.66480    0.13500    1.000
    H18      H        0.05890    0.70510    0.14610    1.000
    C37      C        0.08380    0.61070    0.12860    1.000
    C38      C        0.05430    0.54970    0.11740    1.000
    C39      C        0.85770    0.59040    0.09590    1.000
    C40      C        0.74270    0.49620    0.97640    1.000
    C41      C        0.19090    0.87880    0.40400    1.000
    C42      C        0.59670    0.92360    0.39590    1.000
    C43      C        0.38670    0.71490    0.43540    1.000
    C44      C        0.26150    0.02300    0.22140    1.000
    C45      C        0.36240    0.69260    0.25690    1.000
    C46      C        0.36500    0.68120    0.49570    1.000
    C47      C        0.67840    0.64730    0.15960    1.000
    C48      C        0.16320    0.62280    0.13530    1.000
    Cd5      Cd       0.67225    0.12804    0.88654    1.000
    Cd6      Cd       0.81149    0.83671    0.86463    1.000
    Cd7      Cd       0.74462    0.96338    0.96170    1.000
    Cd8      Cd       0.30421    0.91407    0.61856    1.000
    O25      O        0.82323    0.95654    0.87290    1.000
    O26      O        0.92340    0.90104    0.87070    1.000
    O27      O        0.33504    0.50892    0.61468    1.000
    O28      O        0.43380    0.56573    0.61600    1.000
    O29      O        0.67060    0.10673    0.76350    1.000
    O30      O        0.64500    0.20130    0.80693    1.000
    O31      O        0.79085    0.12300    0.87340    1.000
    O32      O        0.79930    0.06165    0.96129    1.000
    O33      O        0.69490    0.09790    0.52780    1.000
    O34      O        0.65470    0.18140    0.46730    1.000
    O35      O        0.82100    0.50610    0.46080    1.000
    O36      O        0.71050    0.53660    0.45090    1.000
    O37      O        0.29470    0.15710    0.94760    1.000
    O38      O        0.37380    0.10550    0.88670    1.000
    H19      H        0.40300    0.12610    0.91070    1.000
    O39      O        0.19310    0.94140    0.69600    1.000
    O40      O        0.17430    0.35760    0.75570    1.000
    O41      O        0.80210    0.31640    0.70470    1.000
    O42      O        0.88650    0.36110    0.64290    1.000
    H20      H        0.91400    0.33960    0.66770    1.000
    O43      O        0.30950    0.36680    0.68720    1.000
    O44      O        0.14040    0.28691    0.04672    1.000
    O45      O        0.14730    0.37880    0.99600    1.000
    O46      O        0.11960    0.27750    0.70740    1.000
    O47      O        0.30000    0.37240    0.58430    1.000
    O48      O        0.30000    0.98150    0.70030    1.000
    C49      C        0.94580    0.13170    0.89680    1.000
    H21      H        0.92520    0.17170    0.90760    1.000
    C50      C        0.93300    0.01610    0.88110    1.000
    C51      C        0.00670    0.01370    0.86610    1.000
    H22      H        0.02730    0.97360    0.85590    1.000
    C52      C        0.04980    0.07000    0.86620    1.000
    C53      C        0.01880    0.12960    0.88210    1.000
    C54      C        0.89210    0.95350    0.87550    1.000
    C55      C        0.05870    0.19300    0.88110    1.000
    C56      C        0.07910    0.21900    0.82240    1.000
    H23      H        0.06840    0.19690    0.78460    1.000
    C57      C        0.11640    0.27980    0.82040    1.000
    C58      C        0.13230    0.31240    0.87690    1.000
    H24      H        0.15580    0.35260    0.87570    1.000
    C59      C        0.07640    0.22590    0.93790    1.000
    H25      H        0.06350    0.20820    0.97730    1.000
    C60      C        0.40270    0.51230    0.61430    1.000
    C61      C        0.64990    0.16550    0.75860    1.000
    C62      C        0.63320    0.19330    0.69570    1.000
    C63      C        0.65690    0.16230    0.63930    1.000
    H26      H        0.68360    0.12390    0.64220    1.000
    C64      C        0.59220    0.25030    0.69000    1.000
    H27      H        0.57430    0.27040    0.72680    1.000
    C65      C        0.57780    0.27780    0.62970    1.000
    C66      C        0.60250    0.24650    0.57540    1.000
    H28      H        0.59310    0.26480    0.53540    1.000
    C67      C        0.53430    0.33990    0.62500    1.000
    C68      C        0.56450    0.40090    0.60900    1.000
    C69      C        0.52060    0.45450    0.60760    1.000
    H29      H        0.54090    0.49540    0.59970    1.000
    C70      C        0.64100    0.18860    0.57900    1.000
    C71      C        0.66540    0.15270    0.52010    1.000
    C72      C        0.69530    0.37930    0.63250    1.000
    H30      H        0.68180    0.35240    0.66650    1.000
    C73      C        0.76760    0.38820    0.61940    1.000
    C74      C        0.78790    0.42750    0.56760    1.000
    H31      H        0.83620    0.43220    0.55770    1.000
    C75      C        0.73660    0.45960    0.53070    1.000
    C76      C        0.66430    0.44930    0.54460    1.000
    H32      H        0.62970    0.46930    0.51910    1.000
    C77      C        0.12730    0.06280    0.84840    1.000
    C78      C        0.18030    0.09370    0.88460    1.000
    H33      H        0.16820    0.11820    0.92060    1.000
    C79      C        0.25270    0.08720    0.86560    1.000
    C80      C        0.27050    0.04940    0.81350    1.000
    H34      H        0.31840    0.04460    0.80180    1.000
    C81      C        0.21780    0.01860    0.77850    1.000
    C82      C        0.82360    0.08600    0.91180    1.000
    C83      C        0.14640    0.02520    0.79690    1.000
    H35      H        0.11100    0.00360    0.77370    1.000
    C84      C        0.46090    0.33520    0.63500    1.000
    H36      H        0.44110    0.29490    0.64610    1.000
    C85      C        0.41620    0.38930    0.62860    1.000
    C86      C        0.44570    0.45030    0.61740    1.000
    C87      C        0.64230    0.40960    0.59590    1.000
    C88      C        0.75730    0.50380    0.47640    1.000
    C89      C        0.30910    0.12120    0.90400    1.000
    C90      C        0.90330    0.07640    0.89590    1.000
    C91      C        0.11330    0.28510    0.93540    1.000
    C92      C        0.23850    0.97700    0.72140    1.000
    C93      C        0.13760    0.30740    0.75690    1.000
    C94      C        0.13500    0.31880    0.99570    1.000
    C95      C        0.82160    0.35270    0.65960    1.000
    C96      C        0.33680    0.37720    0.63530    1.000
    Cd9      Cd       0.17225    0.37196    0.11346    1.000
    Cd10     Cd       0.31149    0.66329    0.13537    1.000
    Cd11     Cd       0.24462    0.53662    0.03830    1.000
    Cd12     Cd       0.80421    0.58593    0.38144    1.000
    O49      O        0.32323    0.54346    0.12710    1.000
    O50      O        0.42340    0.59896    0.12930    1.000
    O51      O        0.83504    0.99108    0.38532    1.000
    O52      O        0.93380    0.93427    0.38400    1.000
    O53      O        0.17060    0.39327    0.23650    1.000
    O54      O        0.14500    0.29870    0.19307    1.000
    O55      O        0.29085    0.37700    0.12660    1.000
    O56      O        0.29930    0.43835    0.03871    1.000
    O57      O        0.19490    0.40210    0.47220    1.000
    O58      O        0.15470    0.31860    0.53270    1.000
    O59      O        0.32100    0.99390    0.53920    1.000
    O60      O        0.21050    0.96340    0.54910    1.000
    O61      O        0.79470    0.34290    0.05240    1.000
    O62      O        0.87380    0.39450    0.11330    1.000
    H37      H        0.90300    0.37390    0.08930    1.000
    O63      O        0.69310    0.55860    0.30400    1.000
    O64      O        0.67430    0.14240    0.24430    1.000
    O65      O        0.30210    0.18360    0.29530    1.000
    O66      O        0.38650    0.13890    0.35710    1.000
    H38      H        0.41400    0.16040    0.33230    1.000
    O67      O        0.80950    0.13320    0.31280    1.000
    O68      O        0.64040    0.21309    0.95328    1.000
    O69      O        0.64730    0.12120    0.00400    1.000
    O70      O        0.61960    0.22250    0.29260    1.000
    O71      O        0.80000    0.12760    0.41570    1.000
    O72      O        0.80000    0.51850    0.29970    1.000
    C97      C        0.44580    0.36830    0.10320    1.000
    H39      H        0.42520    0.32830    0.09240    1.000
    C98      C        0.43300    0.48390    0.11890    1.000
    C99      C        0.50670    0.48630    0.13390    1.000
    H40      H        0.52730    0.52640    0.14410    1.000
    C100     C        0.54980    0.43000    0.13380    1.000
    C101     C        0.51880    0.37040    0.11790    1.000
    C102     C        0.39210    0.54650    0.12450    1.000
    C103     C        0.55870    0.30700    0.11890    1.000
    C104     C        0.57910    0.28100    0.17760    1.000
    H41      H        0.56840    0.30310    0.21540    1.000
    C105     C        0.61640    0.22020    0.17960    1.000
    C106     C        0.63230    0.18760    0.12310    1.000
    H42      H        0.65580    0.14740    0.12430    1.000
    C107     C        0.57640    0.27410    0.06210    1.000
    H43      H        0.56350    0.29180    0.02270    1.000
    C108     C        0.90270    0.98770    0.38570    1.000
    C109     C        0.14990    0.33450    0.24140    1.000
    C110     C        0.13320    0.30670    0.30430    1.000
    C111     C        0.15690    0.33770    0.36070    1.000
    H44      H        0.18360    0.37610    0.35780    1.000
    C112     C        0.09220    0.24970    0.31000    1.000
    H45      H        0.07430    0.22960    0.27320    1.000
    C113     C        0.07780    0.22220    0.37030    1.000
    C114     C        0.10250    0.25350    0.42460    1.000
    H46      H        0.09310    0.23520    0.46460    1.000
    C115     C        0.03430    0.16010    0.37500    1.000
    C116     C        0.06450    0.09910    0.39100    1.000
    C117     C        0.02060    0.04550    0.39240    1.000
    H47      H        0.04090    0.00460    0.40030    1.000
    C118     C        0.14100    0.31140    0.42100    1.000
    C119     C        0.16540    0.34730    0.47990    1.000
    C120     C        0.19530    0.12070    0.36750    1.000
    H48      H        0.18180    0.14760    0.33350    1.000
    C121     C        0.26760    0.11180    0.38060    1.000
    C122     C        0.28790    0.07250    0.43240    1.000
    H49      H        0.33620    0.06780    0.44230    1.000
    C123     C        0.23660    0.04040    0.46930    1.000
    C124     C        0.16430    0.05070    0.45540    1.000
    H50      H        0.12970    0.03070    0.48090    1.000
    C125     C        0.62730    0.43720    0.15160    1.000
    C126     C        0.68030    0.40630    0.11540    1.000
    H51      H        0.66820    0.38180    0.07940    1.000
    C127     C        0.75270    0.41280    0.13440    1.000
    C128     C        0.77050    0.45060    0.18650    1.000
    H52      H        0.81840    0.45540    0.19820    1.000
    C129     C        0.71780    0.48140    0.22150    1.000
    C130     C        0.32360    0.41400    0.08820    1.000
    C131     C        0.64640    0.47480    0.20310    1.000
    H53      H        0.61100    0.49640    0.22630    1.000
    C132     C        0.96090    0.16480    0.36500    1.000
    H54      H        0.94110    0.20510    0.35390    1.000
    C133     C        0.91620    0.11070    0.37140    1.000
    C134     C        0.94570    0.04970    0.38260    1.000
    C135     C        0.14230    0.09040    0.40410    1.000
    C136     C        0.25730    0.99620    0.52360    1.000
    C137     C        0.80910    0.37880    0.09600    1.000
    C138     C        0.40330    0.42360    0.10410    1.000
    C139     C        0.61330    0.21490    0.06460    1.000
    C140     C        0.73850    0.52300    0.27860    1.000
    C141     C        0.63760    0.19260    0.24310    1.000
    C142     C        0.63500    0.18120    0.00430    1.000
    C143     C        0.32160    0.14730    0.34040    1.000
    C144     C        0.83680    0.12280    0.36470    1.000
    Cd13     Cd       0.32775    0.62804    0.61346    1.000
    Cd14     Cd       0.18851    0.33671    0.63537    1.000
    Cd15     Cd       0.25538    0.46338    0.53830    1.000
    Cd16     Cd       0.69579    0.41407    0.88144    1.000
    O73      O        0.17677    0.45654    0.62710    1.000
    O74      O        0.07660    0.40104    0.62930    1.000
    O75      O        0.66496    0.00892    0.88532    1.000
    O76      O        0.56620    0.06573    0.88400    1.000
    O77      O        0.32940    0.60673    0.73650    1.000
    O78      O        0.35500    0.70130    0.69307    1.000
    O79      O        0.20915    0.62300    0.62660    1.000
    O80      O        0.20070    0.56165    0.53871    1.000
    O81      O        0.30510    0.59790    0.97220    1.000
    O82      O        0.34530    0.68140    0.03270    1.000
    O83      O        0.17900    0.00610    0.03920    1.000
    O84      O        0.28950    0.03660    0.04910    1.000
    O85      O        0.70530    0.65710    0.55240    1.000
    O86      O        0.62620    0.60550    0.61330    1.000
    H55      H        0.59700    0.62610    0.58930    1.000
    O87      O        0.80690    0.44140    0.80400    1.000
    O88      O        0.82570    0.85760    0.74430    1.000
    O89      O        0.19790    0.81640    0.79530    1.000
    O90      O        0.11350    0.86110    0.85710    1.000
    H56      H        0.08600    0.83960    0.83230    1.000
    O91      O        0.69050    0.86680    0.81280    1.000
    O92      O        0.85960    0.78691    0.45328    1.000
    O93      O        0.85270    0.87880    0.50400    1.000
    O94      O        0.88040    0.77750    0.79260    1.000
    O95      O        0.70000    0.87240    0.91570    1.000
    O96      O        0.70000    0.48150    0.79970    1.000
    C145     C        0.05420    0.63170    0.60320    1.000
    H57      H        0.07480    0.67170    0.59240    1.000
    C146     C        0.06700    0.51610    0.61890    1.000
    C147     C        0.99330    0.51370    0.63390    1.000
    H58      H        0.97270    0.47360    0.64410    1.000
    C148     C        0.95020    0.57000    0.63380    1.000
    C149     C        0.98120    0.62960    0.61790    1.000
    C150     C        0.10790    0.45350    0.62450    1.000
    C151     C        0.94130    0.69300    0.61890    1.000
    C152     C        0.92090    0.71900    0.67760    1.000
    H59      H        0.93160    0.69690    0.71540    1.000
    C153     C        0.88360    0.77980    0.67960    1.000
    C154     C        0.86770    0.81240    0.62310    1.000
    H60      H        0.84420    0.85260    0.62430    1.000
    C155     C        0.92360    0.72590    0.56210    1.000
    H61      H        0.93650    0.70820    0.52270    1.000
    C156     C        0.59730    0.01230    0.88570    1.000
    C157     C        0.35010    0.66550    0.74140    1.000
    C158     C        0.36680    0.69330    0.80430    1.000
    C159     C        0.34310    0.66230    0.86070    1.000
    H62      H        0.31640    0.62390    0.85780    1.000
    C160     C        0.40780    0.75030    0.81000    1.000
    H63      H        0.42570    0.77040    0.77320    1.000
    C161     C        0.42220    0.77780    0.87030    1.000
    C162     C        0.39750    0.74650    0.92460    1.000
    H64      H        0.40690    0.76480    0.96460    1.000
    C163     C        0.46570    0.83990    0.87500    1.000
    C164     C        0.43550    0.90090    0.89100    1.000
    C165     C        0.47940    0.95450    0.89240    1.000
    H65      H        0.45910    0.99540    0.90030    1.000
    C166     C        0.35900    0.68860    0.92100    1.000
    C167     C        0.33460    0.65270    0.97990    1.000
    C168     C        0.30470    0.87930    0.86750    1.000
    H66      H        0.31820    0.85240    0.83350    1.000
    C169     C        0.23240    0.88820    0.88060    1.000
    C170     C        0.21210    0.92750    0.93240    1.000
    H67      H        0.16380    0.93220    0.94230    1.000
    C171     C        0.26340    0.95960    0.96930    1.000
    C172     C        0.33570    0.94930    0.95540    1.000
    H68      H        0.37030    0.96930    0.98090    1.000
    C173     C        0.87270    0.56280    0.65160    1.000
    C174     C        0.81970    0.59370    0.61540    1.000
    H69      H        0.83180    0.61820    0.57940    1.000
    C175     C        0.74730    0.58720    0.63440    1.000
    C176     C        0.72950    0.54940    0.68650    1.000
    H70      H        0.68160    0.54460    0.69820    1.000
    C177     C        0.78220    0.51860    0.72150    1.000
    C178     C        0.17640    0.58600    0.58820    1.000
    C179     C        0.85360    0.52520    0.70310    1.000
    H71      H        0.88900    0.50360    0.72630    1.000
    C180     C        0.53910    0.83520    0.86500    1.000
    H72      H        0.55890    0.79490    0.85390    1.000
    C181     C        0.58380    0.88930    0.87140    1.000
    C182     C        0.55430    0.95030    0.88260    1.000
    C183     C        0.35770    0.90960    0.90410    1.000
    C184     C        0.24270    0.00380    0.02360    1.000
    C185     C        0.69090    0.62120    0.59600    1.000
    C186     C        0.09670    0.57640    0.60410    1.000
    C187     C        0.88670    0.78510    0.56460    1.000
    C188     C        0.76150    0.47700    0.77860    1.000
    C189     C        0.86240    0.80740    0.74310    1.000
    C190     C        0.86500    0.81880    0.50430    1.000
    C191     C        0.17840    0.85270    0.84040    1.000
    C192     C        0.66320    0.87720    0.86470    1.000
