# CIF file generated by openbabel 3.1.0, see https://openbabel.org
data_I
_chemical_name_common 'image0'
_cell_length_a 16.646
_cell_length_b 18.345
_cell_length_c 16.309
_cell_angle_alpha 90
_cell_angle_beta 108.893
_cell_angle_gamma 90
_space_group_name_H-M_alt 'P 1'
_space_group_name_Hall 'P 1'
loop_
    _symmetry_equiv_pos_as_xyz
    x,y,z
loop_
    _atom_site_label
    _atom_site_type_symbol
    _atom_site_fract_x
    _atom_site_fract_y
    _atom_site_fract_z
    _atom_site_occupancy
    Zn1      Zn       0.05950    0.13772    0.36451    1.000
    O1       O        0.09690    0.09731    0.48120    1.000
    O2       O        0.22640    0.14091    0.50460    1.000
    O3       O        0.51050    0.26561    0.84970    1.000
    O4       O        0.62170    0.22480    0.94920    1.000
    O5       O        0.65870    0.95960    0.99500    1.000
    H1       H        0.68590    0.92150    0.00630    1.000
    O6       O        0.55350    0.88390    0.92720    1.000
    O7       O        0.13580    0.90392    0.80850    1.000
    O8       O        0.04360    0.92300    0.67660    1.000
    C1       C        0.17450    0.10520    0.52740    1.000
    C2       C        0.20150    0.06820    0.61410    1.000
    C3       C        0.28160    0.08200    0.67210    1.000
    H2       H        0.31740    0.11470    0.65740    1.000
    C4       C        0.30920    0.04700    0.75330    1.000
    C5       C        0.25360    0.99750    0.77410    1.000
    H3       H        0.27020    0.97400    0.82750    1.000
    C6       C        0.17370    0.98420    0.71430    1.000
    C7       C        0.14880    0.01880    0.63420    1.000
    H4       H        0.09610    0.00850    0.59400    1.000
    C8       C        0.11280    0.93320    0.73530    1.000
    C9       C        0.39740    0.05930    0.81260    1.000
    C10      C        0.43380    0.12850    0.82400    1.000
    H5       H        0.40330    0.16760    0.79270    1.000
    C11      C        0.51510    0.14000    0.88130    1.000
    C12      C        0.56340    0.08110    0.92320    1.000
    H6       H        0.61800    0.08840    0.96140    1.000
    C13      C        0.53020    0.01140    0.90790    1.000
    C14      C        0.44730    0.00170    0.85530    1.000
    H7       H        0.42420    0.95500    0.84840    1.000
    C15      C        0.55280    0.21560    0.89380    1.000
    C16      C        0.58120    0.94550    0.94440    1.000
    Zn2      Zn       0.55950    0.63772    0.36451    1.000
    O9       O        0.59690    0.59731    0.48120    1.000
    O10      O        0.72640    0.64091    0.50460    1.000
    O11      O        0.01050    0.76561    0.84970    1.000
    O12      O        0.12170    0.72480    0.94920    1.000
    O13      O        0.15870    0.45960    0.99500    1.000
    H8       H        0.18590    0.42150    0.00630    1.000
    O14      O        0.05350    0.38390    0.92720    1.000
    O15      O        0.63580    0.40392    0.80850    1.000
    O16      O        0.54360    0.42300    0.67660    1.000
    C17      C        0.67450    0.60520    0.52740    1.000
    C18      C        0.70150    0.56820    0.61410    1.000
    C19      C        0.78160    0.58200    0.67210    1.000
    H9       H        0.81740    0.61470    0.65740    1.000
    C20      C        0.80920    0.54700    0.75330    1.000
    C21      C        0.75360    0.49750    0.77410    1.000
    H10      H        0.77020    0.47400    0.82750    1.000
    C22      C        0.67370    0.48420    0.71430    1.000
    C23      C        0.64880    0.51880    0.63420    1.000
    H11      H        0.59610    0.50850    0.59400    1.000
    C24      C        0.61280    0.43320    0.73530    1.000
    C25      C        0.89740    0.55930    0.81260    1.000
    C26      C        0.93380    0.62850    0.82400    1.000
    H12      H        0.90330    0.66760    0.79270    1.000
    C27      C        0.01510    0.64000    0.88130    1.000
    C28      C        0.06340    0.58110    0.92320    1.000
    H13      H        0.11800    0.58840    0.96140    1.000
    C29      C        0.03020    0.51140    0.90790    1.000
    C30      C        0.94730    0.50170    0.85530    1.000
    H14      H        0.92420    0.45500    0.84840    1.000
    C31      C        0.05280    0.71560    0.89380    1.000
    C32      C        0.08120    0.44550    0.94440    1.000
    Zn3      Zn       0.94050    0.13772    0.13549    1.000
    O17      O        0.90310    0.09731    0.01880    1.000
    O18      O        0.77360    0.14091    0.99540    1.000
    O19      O        0.48950    0.26561    0.65030    1.000
    O20      O        0.37830    0.22480    0.55080    1.000
    O21      O        0.34130    0.95960    0.50500    1.000
    H15      H        0.31410    0.92150    0.49370    1.000
    O22      O        0.44650    0.88390    0.57280    1.000
    O23      O        0.86420    0.90392    0.69150    1.000
    O24      O        0.95640    0.92300    0.82340    1.000
    C33      C        0.82550    0.10520    0.97260    1.000
    C34      C        0.79850    0.06820    0.88590    1.000
    C35      C        0.71840    0.08200    0.82790    1.000
    H16      H        0.68260    0.11470    0.84260    1.000
    C36      C        0.69080    0.04700    0.74670    1.000
    C37      C        0.74640    0.99750    0.72590    1.000
    H17      H        0.72980    0.97400    0.67250    1.000
    C38      C        0.82630    0.98420    0.78570    1.000
    C39      C        0.85120    0.01880    0.86580    1.000
    H18      H        0.90390    0.00850    0.90600    1.000
    C40      C        0.88720    0.93320    0.76470    1.000
    C41      C        0.60260    0.05930    0.68740    1.000
    C42      C        0.56620    0.12850    0.67600    1.000
    H19      H        0.59670    0.16760    0.70730    1.000
    C43      C        0.48490    0.14000    0.61870    1.000
    C44      C        0.43660    0.08110    0.57680    1.000
    H20      H        0.38200    0.08840    0.53860    1.000
    C45      C        0.46980    0.01140    0.59210    1.000
    C46      C        0.55270    0.00170    0.64470    1.000
    H21      H        0.57580    0.95500    0.65160    1.000
    C47      C        0.44720    0.21560    0.60620    1.000
    C48      C        0.41880    0.94550    0.55560    1.000
    Zn4      Zn       0.44050    0.63772    0.13549    1.000
    O25      O        0.40310    0.59731    0.01880    1.000
    O26      O        0.27360    0.64091    0.99540    1.000
    O27      O        0.98950    0.76561    0.65030    1.000
    O28      O        0.87830    0.72480    0.55080    1.000
    O29      O        0.84130    0.45960    0.50500    1.000
    H22      H        0.81410    0.42150    0.49370    1.000
    O30      O        0.94650    0.38390    0.57280    1.000
    O31      O        0.36420    0.40392    0.69150    1.000
    O32      O        0.45640    0.42300    0.82340    1.000
    C49      C        0.32550    0.60520    0.97260    1.000
    C50      C        0.29850    0.56820    0.88590    1.000
    C51      C        0.21840    0.58200    0.82790    1.000
    H23      H        0.18260    0.61470    0.84260    1.000
    C52      C        0.19080    0.54700    0.74670    1.000
    C53      C        0.24640    0.49750    0.72590    1.000
    H24      H        0.22980    0.47400    0.67250    1.000
    C54      C        0.32630    0.48420    0.78570    1.000
    C55      C        0.35120    0.51880    0.86580    1.000
    H25      H        0.40390    0.50850    0.90600    1.000
    C56      C        0.38720    0.43320    0.76470    1.000
    C57      C        0.10260    0.55930    0.68740    1.000
    C58      C        0.06620    0.62850    0.67600    1.000
    H26      H        0.09670    0.66760    0.70730    1.000
    C59      C        0.98490    0.64000    0.61870    1.000
    C60      C        0.93660    0.58110    0.57680    1.000
    H27      H        0.88200    0.58840    0.53860    1.000
    C61      C        0.96980    0.51140    0.59210    1.000
    C62      C        0.05270    0.50170    0.64470    1.000
    H28      H        0.07580    0.45500    0.65160    1.000
    C63      C        0.94720    0.71560    0.60620    1.000
    C64      C        0.91880    0.44550    0.55560    1.000
    Zn5      Zn       0.94050    0.86228    0.63549    1.000
    O33      O        0.90310    0.90269    0.51880    1.000
    O34      O        0.77360    0.85909    0.49540    1.000
    O35      O        0.48950    0.73439    0.15030    1.000
    O36      O        0.37830    0.77520    0.05080    1.000
    O37      O        0.34130    0.04040    0.00500    1.000
    H29      H        0.31410    0.07850    0.99370    1.000
    O38      O        0.44650    0.11610    0.07280    1.000
    O39      O        0.86420    0.09608    0.19150    1.000
    O40      O        0.95640    0.07700    0.32340    1.000
    C65      C        0.82550    0.89480    0.47260    1.000
    C66      C        0.79850    0.93180    0.38590    1.000
    C67      C        0.71840    0.91800    0.32790    1.000
    H30      H        0.68260    0.88530    0.34260    1.000
    C68      C        0.69080    0.95300    0.24670    1.000
    C69      C        0.74640    0.00250    0.22590    1.000
    H31      H        0.72980    0.02600    0.17250    1.000
    C70      C        0.82630    0.01580    0.28570    1.000
    C71      C        0.85120    0.98120    0.36580    1.000
    H32      H        0.90390    0.99150    0.40600    1.000
    C72      C        0.88720    0.06680    0.26470    1.000
    C73      C        0.60260    0.94070    0.18740    1.000
    C74      C        0.56620    0.87150    0.17600    1.000
    H33      H        0.59670    0.83240    0.20730    1.000
    C75      C        0.48490    0.86000    0.11870    1.000
    C76      C        0.43660    0.91890    0.07680    1.000
    H34      H        0.38200    0.91160    0.03860    1.000
    C77      C        0.46980    0.98860    0.09210    1.000
    C78      C        0.55270    0.99830    0.14470    1.000
    H35      H        0.57580    0.04500    0.15160    1.000
    C79      C        0.44720    0.78440    0.10620    1.000
    C80      C        0.41880    0.05450    0.05560    1.000
    Zn6      Zn       0.44050    0.36228    0.63549    1.000
    O41      O        0.40310    0.40269    0.51880    1.000
    O42      O        0.27360    0.35909    0.49540    1.000
    O43      O        0.98950    0.23439    0.15030    1.000
    O44      O        0.87830    0.27520    0.05080    1.000
    O45      O        0.84130    0.54040    0.00500    1.000
    H36      H        0.81410    0.57850    0.99370    1.000
    O46      O        0.94650    0.61610    0.07280    1.000
    O47      O        0.36420    0.59608    0.19150    1.000
    O48      O        0.45640    0.57700    0.32340    1.000
    C81      C        0.32550    0.39480    0.47260    1.000
    C82      C        0.29850    0.43180    0.38590    1.000
    C83      C        0.21840    0.41800    0.32790    1.000
    H37      H        0.18260    0.38530    0.34260    1.000
    C84      C        0.19080    0.45300    0.24670    1.000
    C85      C        0.24640    0.50250    0.22590    1.000
    H38      H        0.22980    0.52600    0.17250    1.000
    C86      C        0.32630    0.51580    0.28570    1.000
    C87      C        0.35120    0.48120    0.36580    1.000
    H39      H        0.40390    0.49150    0.40600    1.000
    C88      C        0.38720    0.56680    0.26470    1.000
    C89      C        0.10260    0.44070    0.18740    1.000
    C90      C        0.06620    0.37150    0.17600    1.000
    H40      H        0.09670    0.33240    0.20730    1.000
    C91      C        0.98490    0.36000    0.11870    1.000
    C92      C        0.93660    0.41890    0.07680    1.000
    H41      H        0.88200    0.41160    0.03860    1.000
    C93      C        0.96980    0.48860    0.09210    1.000
    C94      C        0.05270    0.49830    0.14470    1.000
    H42      H        0.07580    0.54500    0.15160    1.000
    C95      C        0.94720    0.28440    0.10620    1.000
    C96      C        0.91880    0.55450    0.05560    1.000
    Zn7      Zn       0.05950    0.86228    0.86451    1.000
    O49      O        0.09690    0.90269    0.98120    1.000
    O50      O        0.22640    0.85909    0.00460    1.000
    O51      O        0.51050    0.73439    0.34970    1.000
    O52      O        0.62170    0.77520    0.44920    1.000
    O53      O        0.65870    0.04040    0.49500    1.000
    H43      H        0.68590    0.07850    0.50630    1.000
    O54      O        0.55350    0.11610    0.42720    1.000
    O55      O        0.13580    0.09608    0.30850    1.000
    O56      O        0.04360    0.07700    0.17660    1.000
    C97      C        0.17450    0.89480    0.02740    1.000
    C98      C        0.20150    0.93180    0.11410    1.000
    C99      C        0.28160    0.91800    0.17210    1.000
    H44      H        0.31740    0.88530    0.15740    1.000
    C100     C        0.30920    0.95300    0.25330    1.000
    C101     C        0.25360    0.00250    0.27410    1.000
    H45      H        0.27020    0.02600    0.32750    1.000
    C102     C        0.17370    0.01580    0.21430    1.000
    C103     C        0.14880    0.98120    0.13420    1.000
    H46      H        0.09610    0.99150    0.09400    1.000
    C104     C        0.11280    0.06680    0.23530    1.000
    C105     C        0.39740    0.94070    0.31260    1.000
    C106     C        0.43380    0.87150    0.32400    1.000
    H47      H        0.40330    0.83240    0.29270    1.000
    C107     C        0.51510    0.86000    0.38130    1.000
    C108     C        0.56340    0.91890    0.42320    1.000
    H48      H        0.61800    0.91160    0.46140    1.000
    C109     C        0.53020    0.98860    0.40790    1.000
    C110     C        0.44730    0.99830    0.35530    1.000
    H49      H        0.42420    0.04500    0.34840    1.000
    C111     C        0.55280    0.78440    0.39380    1.000
    C112     C        0.58120    0.05450    0.44440    1.000
    Zn8      Zn       0.55950    0.36228    0.86451    1.000
    O57      O        0.59690    0.40269    0.98120    1.000
    O58      O        0.72640    0.35909    0.00460    1.000
    O59      O        0.01050    0.23439    0.34970    1.000
    O60      O        0.12170    0.27520    0.44920    1.000
    O61      O        0.15870    0.54040    0.49500    1.000
    H50      H        0.18590    0.57850    0.50630    1.000
    O62      O        0.05350    0.61610    0.42720    1.000
    O63      O        0.63580    0.59608    0.30850    1.000
    O64      O        0.54360    0.57700    0.17660    1.000
    C113     C        0.67450    0.39480    0.02740    1.000
    C114     C        0.70150    0.43180    0.11410    1.000
    C115     C        0.78160    0.41800    0.17210    1.000
    H51      H        0.81740    0.38530    0.15740    1.000
    C116     C        0.80920    0.45300    0.25330    1.000
    C117     C        0.75360    0.50250    0.27410    1.000
    H52      H        0.77020    0.52600    0.32750    1.000
    C118     C        0.67370    0.51580    0.21430    1.000
    C119     C        0.64880    0.48120    0.13420    1.000
    H53      H        0.59610    0.49150    0.09400    1.000
    C120     C        0.61280    0.56680    0.23530    1.000
    C121     C        0.89740    0.44070    0.31260    1.000
    C122     C        0.93380    0.37150    0.32400    1.000
    H54      H        0.90330    0.33240    0.29270    1.000
    C123     C        0.01510    0.36000    0.38130    1.000
    C124     C        0.06340    0.41890    0.42320    1.000
    H55      H        0.11800    0.41160    0.46140    1.000
    C125     C        0.03020    0.48860    0.40790    1.000
    C126     C        0.94730    0.49830    0.35530    1.000
    H56      H        0.92420    0.54500    0.34840    1.000
    C127     C        0.05280    0.28440    0.39380    1.000
    C128     C        0.08120    0.55450    0.44440    1.000
    Zn9      Zn       0.25000    0.25000    0.50000    1.000
    Zn10     Zn       0.75000    0.25000    0.00000    1.000
    Zn11     Zn       0.75000    0.75000    0.50000    1.000
    Zn12     Zn       0.25000    0.75000    0.00000    1.000
