# CIF file generated by openbabel 3.1.0, see https://openbabel.org
data_I
_chemical_name_common 'VATYEV_clean'
_cell_length_a 8.52
_cell_length_b 9.51
_cell_length_c 10.14
_cell_angle_alpha 62.11
_cell_angle_beta 76.15
_cell_angle_gamma 73.73
_space_group_name_H-M_alt 'P 1'
_space_group_name_Hall 'P 1'
loop_
    _symmetry_equiv_pos_as_xyz
    x,y,z
loop_
    _atom_site_label
    _atom_site_type_symbol
    _atom_site_fract_x
    _atom_site_fract_y
    _atom_site_fract_z
    _atom_site_occupancy
    Gd1      Gd       0.66706    0.62803    0.15990    1.000
    Gd2      Gd       0.33294    0.37197    0.84010    1.000
    C1       C        0.01340    0.58730    0.95170    1.000
    C2       C        0.57330    0.02310    0.01460    1.000
    C3       C        0.44770    0.58680    0.48310    1.000
    C4       C        0.44210    0.46230    0.07500    1.000
    C5       C        0.98660    0.41270    0.04830    1.000
    C6       C        0.42670    0.97690    0.98540    1.000
    C7       C        0.55230    0.41320    0.51690    1.000
    C8       C        0.55790    0.53770    0.92500    1.000
    O1       O        0.91890    0.69580    0.98440    1.000
    O2       O        0.68270    0.90800    0.07820    1.000
    O3       O        0.47230    0.69340    0.35020    1.000
    O4       O        0.46260    0.48010    0.18500    1.000
    O5       O        0.56720    0.17100    0.96810    1.000
    O6       O        0.13310    0.60790    0.84730    1.000
    O7       O        0.34090    0.39100    0.07350    1.000
    O8       O        0.34820    0.60380    0.58880    1.000
    O9       O        0.08110    0.30420    0.01560    1.000
    O10      O        0.31730    0.09200    0.92180    1.000
    O11      O        0.52770    0.30660    0.64980    1.000
    O12      O        0.53740    0.51990    0.81500    1.000
    O13      O        0.43280    0.82900    0.03190    1.000
    O14      O        0.86690    0.39210    0.15270    1.000
    O15      O        0.65910    0.60900    0.92650    1.000
    O16      O        0.65180    0.39620    0.41120    1.000
