# CIF file generated by openbabel 3.1.0, see https://openbabel.org
data_I
_chemical_name_common 'image0'
_cell_length_a 41.393
_cell_length_b 41.393
_cell_length_c 41.393
_cell_angle_alpha 90
_cell_angle_beta 90
_cell_angle_gamma 90
_space_group_name_H-M_alt 'P 1'
_space_group_name_Hall 'P 1'
loop_
    _symmetry_equiv_pos_as_xyz
    x,y,z
loop_
    _atom_site_label
    _atom_site_type_symbol
    _atom_site_fract_x
    _atom_site_fract_y
    _atom_site_fract_z
    _atom_site_occupancy
    Zn1      Zn       0.70388    0.87758    0.03351    1.000
    O1       O        0.72674    0.90817    0.00606    1.000
    N1       N        0.68106    0.84918    0.00189    1.000
    N2       N        0.67317    0.90260    0.06070    1.000
    N3       N        0.65382    0.81164    0.97630    1.000
    C1       C        0.75900    0.95477    0.99873    1.000
    O2       O        0.75635    0.92434    0.04767    1.000
    C2       C        0.74759    0.92656    0.01950    1.000
    C3       C        0.65396    0.83275    0.00086    1.000
    C4       C        0.67400    0.92797    0.08100    1.000
    N4       N        0.69910    0.83800    0.97700    1.000
    N5       N        0.69870    0.94870    0.08310    1.000
    H1       H        0.69640    0.96640    0.09370    1.000
    H2       H        0.71680    0.94430    0.07390    1.000
    N6       N        0.63010    0.83450    0.02360    1.000
    H3       H        0.63230    0.84700    0.04000    1.000
    H4       H        0.61290    0.82300    0.02150    1.000
    N7       N        0.64616    0.93327    0.09430    1.000
    N8       N        0.62670    0.90920    0.08290    1.000
    N9       N        0.68260    0.81700    0.96150    1.000
    C5       C        0.78604    0.97221    0.00857    1.000
    H5       H        0.79770    0.96600    0.02680    1.000
    O3       O        0.60260    0.99220    0.09640    1.000
    N10      N        0.64300    0.89080    0.06490    1.000
    C6       C        0.58960    0.04350    0.05670    1.000
    H6       H        0.60760    0.03070    0.05250    1.000
    O4       O        0.56050    0.00310    0.12790    1.000
    C7       C        0.56990    0.03700    0.08220    1.000
    C8       C        0.57750    0.00850    0.10390    1.000
    Zn2      Zn       0.70388    0.37758    0.53351    1.000
    O5       O        0.72674    0.40817    0.50606    1.000
    N11      N        0.68106    0.34918    0.50189    1.000
    N12      N        0.67317    0.40260    0.56070    1.000
    N13      N        0.65382    0.31164    0.47630    1.000
    C9       C        0.75900    0.45477    0.49873    1.000
    O6       O        0.75635    0.42434    0.54767    1.000
    C10      C        0.74759    0.42656    0.51950    1.000
    C11      C        0.65396    0.33275    0.50086    1.000
    C12      C        0.67400    0.42797    0.58100    1.000
    N14      N        0.69910    0.33800    0.47700    1.000
    N15      N        0.69870    0.44870    0.58310    1.000
    H7       H        0.69640    0.46640    0.59370    1.000
    H8       H        0.71680    0.44430    0.57390    1.000
    N16      N        0.63010    0.33450    0.52360    1.000
    H9       H        0.63230    0.34700    0.54000    1.000
    H10      H        0.61290    0.32300    0.52150    1.000
    N17      N        0.64616    0.43327    0.59430    1.000
    N18      N        0.62670    0.40920    0.58290    1.000
    N19      N        0.68260    0.31700    0.46150    1.000
    C13      C        0.78604    0.47221    0.50857    1.000
    H11      H        0.79770    0.46600    0.52680    1.000
    O7       O        0.60260    0.49220    0.59640    1.000
    N20      N        0.64300    0.39080    0.56490    1.000
    C14      C        0.58960    0.54350    0.55670    1.000
    H12      H        0.60760    0.53070    0.55250    1.000
    O8       O        0.56050    0.50310    0.62790    1.000
    C15      C        0.56990    0.53700    0.58220    1.000
    C16      C        0.57750    0.50850    0.60390    1.000
    Zn3      Zn       0.20388    0.87758    0.53351    1.000
    O9       O        0.22674    0.90817    0.50606    1.000
    N21      N        0.18106    0.84918    0.50189    1.000
    N22      N        0.17317    0.90260    0.56070    1.000
    N23      N        0.15382    0.81164    0.47630    1.000
    C17      C        0.25900    0.95477    0.49873    1.000
    O10      O        0.25635    0.92434    0.54767    1.000
    C18      C        0.24759    0.92656    0.51950    1.000
    C19      C        0.15396    0.83275    0.50086    1.000
    C20      C        0.17400    0.92797    0.58100    1.000
    N24      N        0.19910    0.83800    0.47700    1.000
    N25      N        0.19870    0.94870    0.58310    1.000
    H13      H        0.19640    0.96640    0.59370    1.000
    H14      H        0.21680    0.94430    0.57390    1.000
    N26      N        0.13010    0.83450    0.52360    1.000
    H15      H        0.13230    0.84700    0.54000    1.000
    H16      H        0.11290    0.82300    0.52150    1.000
    N27      N        0.14616    0.93327    0.59430    1.000
    N28      N        0.12670    0.90920    0.58290    1.000
    N29      N        0.18260    0.81700    0.46150    1.000
    C21      C        0.28604    0.97221    0.50857    1.000
    H17      H        0.29770    0.96600    0.52680    1.000
    O11      O        0.10260    0.99220    0.59640    1.000
    N30      N        0.14300    0.89080    0.56490    1.000
    C22      C        0.08960    0.04350    0.55670    1.000
    H18      H        0.10760    0.03070    0.55250    1.000
    O12      O        0.06050    0.00310    0.62790    1.000
    C23      C        0.06990    0.03700    0.58220    1.000
    C24      C        0.07750    0.00850    0.60390    1.000
    Zn4      Zn       0.20388    0.37758    0.03351    1.000
    O13      O        0.22674    0.40817    0.00606    1.000
    N31      N        0.18106    0.34918    0.00189    1.000
    N32      N        0.17317    0.40260    0.06070    1.000
    N33      N        0.15382    0.31164    0.97630    1.000
    C25      C        0.25900    0.45477    0.99873    1.000
    O14      O        0.25635    0.42434    0.04767    1.000
    C26      C        0.24759    0.42656    0.01950    1.000
    C27      C        0.15396    0.33275    0.00086    1.000
    C28      C        0.17400    0.42797    0.08100    1.000
    N34      N        0.19910    0.33800    0.97700    1.000
    N35      N        0.19870    0.44870    0.08310    1.000
    H19      H        0.19640    0.46640    0.09370    1.000
    H20      H        0.21680    0.44430    0.07390    1.000
    N36      N        0.13010    0.33450    0.02360    1.000
    H21      H        0.13230    0.34700    0.04000    1.000
    H22      H        0.11290    0.32300    0.02150    1.000
    N37      N        0.14616    0.43327    0.09430    1.000
    N38      N        0.12670    0.40920    0.08290    1.000
    N39      N        0.18260    0.31700    0.96150    1.000
    C29      C        0.28604    0.47221    0.00857    1.000
    H23      H        0.29770    0.46600    0.02680    1.000
    O15      O        0.10260    0.49220    0.09640    1.000
    N40      N        0.14300    0.39080    0.06490    1.000
    C30      C        0.08960    0.54350    0.05670    1.000
    H24      H        0.10760    0.53070    0.05250    1.000
    O16      O        0.06050    0.50310    0.12790    1.000
    C31      C        0.06990    0.53700    0.08220    1.000
    C32      C        0.07750    0.50850    0.10390    1.000
    Zn5      Zn       0.54612    0.37242    0.03351    1.000
    O17      O        0.52326    0.34183    0.00606    1.000
    N41      N        0.56894    0.40082    0.00189    1.000
    N42      N        0.57683    0.34740    0.06070    1.000
    N43      N        0.59618    0.43836    0.97630    1.000
    C33      C        0.49100    0.29523    0.99873    1.000
    O18      O        0.49365    0.32566    0.04767    1.000
    C34      C        0.50241    0.32344    0.01950    1.000
    C35      C        0.59604    0.41725    0.00086    1.000
    C36      C        0.57600    0.32203    0.08100    1.000
    N44      N        0.55090    0.41200    0.97700    1.000
    N45      N        0.55130    0.30130    0.08310    1.000
    H25      H        0.55360    0.28360    0.09370    1.000
    H26      H        0.53320    0.30570    0.07390    1.000
    N46      N        0.61990    0.41550    0.02360    1.000
    H27      H        0.61770    0.40300    0.04000    1.000
    H28      H        0.63710    0.42700    0.02150    1.000
    N47      N        0.60384    0.31673    0.09430    1.000
    N48      N        0.62330    0.34080    0.08290    1.000
    N49      N        0.56740    0.43300    0.96150    1.000
    C37      C        0.46396    0.27779    0.00857    1.000
    H29      H        0.45230    0.28400    0.02680    1.000
    O19      O        0.64740    0.25780    0.09640    1.000
    N50      N        0.60700    0.35920    0.06490    1.000
    C38      C        0.66040    0.20650    0.05670    1.000
    H30      H        0.64240    0.21930    0.05250    1.000
    O20      O        0.68950    0.24690    0.12790    1.000
    C39      C        0.68010    0.21300    0.08220    1.000
    C40      C        0.67250    0.24150    0.10390    1.000
    Zn6      Zn       0.54612    0.87242    0.53351    1.000
    O21      O        0.52326    0.84183    0.50606    1.000
    N51      N        0.56894    0.90082    0.50189    1.000
    N52      N        0.57683    0.84740    0.56070    1.000
    N53      N        0.59618    0.93836    0.47630    1.000
    C41      C        0.49100    0.79523    0.49873    1.000
    O22      O        0.49365    0.82566    0.54767    1.000
    C42      C        0.50241    0.82344    0.51950    1.000
    C43      C        0.59604    0.91725    0.50086    1.000
    C44      C        0.57600    0.82203    0.58100    1.000
    N54      N        0.55090    0.91200    0.47700    1.000
    N55      N        0.55130    0.80130    0.58310    1.000
    H31      H        0.55360    0.78360    0.59370    1.000
    H32      H        0.53320    0.80570    0.57390    1.000
    N56      N        0.61990    0.91550    0.52360    1.000
    H33      H        0.61770    0.90300    0.54000    1.000
    H34      H        0.63710    0.92700    0.52150    1.000
    N57      N        0.60384    0.81673    0.59430    1.000
    N58      N        0.62330    0.84080    0.58290    1.000
    N59      N        0.56740    0.93300    0.46150    1.000
    C45      C        0.46396    0.77779    0.50857    1.000
    H35      H        0.45230    0.78400    0.52680    1.000
    O23      O        0.64740    0.75780    0.59640    1.000
    N60      N        0.60700    0.85920    0.56490    1.000
    C46      C        0.66040    0.70650    0.55670    1.000
    H36      H        0.64240    0.71930    0.55250    1.000
    O24      O        0.68950    0.74690    0.62790    1.000
    C47      C        0.68010    0.71300    0.58220    1.000
    C48      C        0.67250    0.74150    0.60390    1.000
    Zn7      Zn       0.04612    0.37242    0.53351    1.000
    O25      O        0.02326    0.34183    0.50606    1.000
    N61      N        0.06894    0.40082    0.50189    1.000
    N62      N        0.07683    0.34740    0.56070    1.000
    N63      N        0.09618    0.43836    0.47630    1.000
    C49      C        0.99100    0.29523    0.49873    1.000
    O26      O        0.99365    0.32566    0.54767    1.000
    C50      C        0.00241    0.32344    0.51950    1.000
    C51      C        0.09604    0.41725    0.50086    1.000
    C52      C        0.07600    0.32203    0.58100    1.000
    N64      N        0.05090    0.41200    0.47700    1.000
    N65      N        0.05130    0.30130    0.58310    1.000
    H37      H        0.05360    0.28360    0.59370    1.000
    H38      H        0.03320    0.30570    0.57390    1.000
    N66      N        0.11990    0.41550    0.52360    1.000
    H39      H        0.11770    0.40300    0.54000    1.000
    H40      H        0.13710    0.42700    0.52150    1.000
    N67      N        0.10384    0.31673    0.59430    1.000
    N68      N        0.12330    0.34080    0.58290    1.000
    N69      N        0.06740    0.43300    0.46150    1.000
    C53      C        0.96396    0.27779    0.50857    1.000
    H41      H        0.95230    0.28400    0.52680    1.000
    O27      O        0.14740    0.25780    0.59640    1.000
    N70      N        0.10700    0.35920    0.56490    1.000
    C54      C        0.16040    0.20650    0.55670    1.000
    H42      H        0.14240    0.21930    0.55250    1.000
    O28      O        0.18950    0.24690    0.62790    1.000
    C55      C        0.18010    0.21300    0.58220    1.000
    C56      C        0.17250    0.24150    0.60390    1.000
    Zn8      Zn       0.04612    0.87242    0.03351    1.000
    O29      O        0.02326    0.84183    0.00606    1.000
    N71      N        0.06894    0.90082    0.00189    1.000
    N72      N        0.07683    0.84740    0.06070    1.000
    N73      N        0.09618    0.93836    0.97630    1.000
    C57      C        0.99100    0.79523    0.99873    1.000
    O30      O        0.99365    0.82566    0.04767    1.000
    C58      C        0.00241    0.82344    0.01950    1.000
    C59      C        0.09604    0.91725    0.00086    1.000
    C60      C        0.07600    0.82203    0.08100    1.000
    N74      N        0.05090    0.91200    0.97700    1.000
    N75      N        0.05130    0.80130    0.08310    1.000
    H43      H        0.05360    0.78360    0.09370    1.000
    H44      H        0.03320    0.80570    0.07390    1.000
    N76      N        0.11990    0.91550    0.02360    1.000
    H45      H        0.11770    0.90300    0.04000    1.000
    H46      H        0.13710    0.92700    0.02150    1.000
    N77      N        0.10384    0.81673    0.09430    1.000
    N78      N        0.12330    0.84080    0.08290    1.000
    N79      N        0.06740    0.93300    0.96150    1.000
    C61      C        0.96396    0.77779    0.00857    1.000
    H47      H        0.95230    0.78400    0.02680    1.000
    O31      O        0.14740    0.75780    0.09640    1.000
    N80      N        0.10700    0.85920    0.06490    1.000
    C62      C        0.16040    0.70650    0.05670    1.000
    H48      H        0.14240    0.71930    0.05250    1.000
    O32      O        0.18950    0.74690    0.12790    1.000
    C63      C        0.18010    0.71300    0.08220    1.000
    C64      C        0.17250    0.74150    0.10390    1.000
    Zn9      Zn       0.54612    0.87758    0.21649    1.000
    O33      O        0.52326    0.90817    0.24394    1.000
    N81      N        0.56894    0.84918    0.24811    1.000
    N82      N        0.57683    0.90260    0.18930    1.000
    N83      N        0.59618    0.81164    0.27370    1.000
    C65      C        0.49100    0.95477    0.25127    1.000
    O34      O        0.49365    0.92434    0.20233    1.000
    C66      C        0.50241    0.92656    0.23050    1.000
    C67      C        0.59604    0.83275    0.24914    1.000
    C68      C        0.57600    0.92797    0.16900    1.000
    N84      N        0.55090    0.83800    0.27300    1.000
    N85      N        0.55130    0.94870    0.16690    1.000
    H49      H        0.55360    0.96640    0.15630    1.000
    H50      H        0.53320    0.94430    0.17610    1.000
    N86      N        0.61990    0.83450    0.22640    1.000
    H51      H        0.61770    0.84700    0.21000    1.000
    H52      H        0.63710    0.82300    0.22850    1.000
    N87      N        0.60384    0.93327    0.15570    1.000
    N88      N        0.62330    0.90920    0.16710    1.000
    N89      N        0.56740    0.81700    0.28850    1.000
    C69      C        0.46396    0.97221    0.24143    1.000
    H53      H        0.45230    0.96600    0.22320    1.000
    O35      O        0.64740    0.99220    0.15360    1.000
    N90      N        0.60700    0.89080    0.18510    1.000
    C70      C        0.66040    0.04350    0.19330    1.000
    H54      H        0.64240    0.03070    0.19750    1.000
    O36      O        0.68950    0.00310    0.12210    1.000
    C71      C        0.68010    0.03700    0.16780    1.000
    C72      C        0.67250    0.00850    0.14610    1.000
    Zn10     Zn       0.54612    0.37758    0.71649    1.000
    O37      O        0.52326    0.40817    0.74394    1.000
    N91      N        0.56894    0.34918    0.74811    1.000
    N92      N        0.57683    0.40260    0.68930    1.000
    N93      N        0.59618    0.31164    0.77370    1.000
    C73      C        0.49100    0.45477    0.75127    1.000
    O38      O        0.49365    0.42434    0.70233    1.000
    C74      C        0.50241    0.42656    0.73050    1.000
    C75      C        0.59604    0.33275    0.74914    1.000
    C76      C        0.57600    0.42797    0.66900    1.000
    N94      N        0.55090    0.33800    0.77300    1.000
    N95      N        0.55130    0.44870    0.66690    1.000
    H55      H        0.55360    0.46640    0.65630    1.000
    H56      H        0.53320    0.44430    0.67610    1.000
    N96      N        0.61990    0.33450    0.72640    1.000
    H57      H        0.61770    0.34700    0.71000    1.000
    H58      H        0.63710    0.32300    0.72850    1.000
    N97      N        0.60384    0.43327    0.65570    1.000
    N98      N        0.62330    0.40920    0.66710    1.000
    N99      N        0.56740    0.31700    0.78850    1.000
    C77      C        0.46396    0.47221    0.74143    1.000
    H59      H        0.45230    0.46600    0.72320    1.000
    O39      O        0.64740    0.49220    0.65360    1.000
    N100     N        0.60700    0.39080    0.68510    1.000
    C78      C        0.66040    0.54350    0.69330    1.000
    H60      H        0.64240    0.53070    0.69750    1.000
    O40      O        0.68950    0.50310    0.62210    1.000
    C79      C        0.68010    0.53700    0.66780    1.000
    C80      C        0.67250    0.50850    0.64610    1.000
    Zn11     Zn       0.04612    0.87758    0.71649    1.000
    O41      O        0.02326    0.90817    0.74394    1.000
    N101     N        0.06894    0.84918    0.74811    1.000
    N102     N        0.07683    0.90260    0.68930    1.000
    N103     N        0.09618    0.81164    0.77370    1.000
    C81      C        0.99100    0.95477    0.75127    1.000
    O42      O        0.99365    0.92434    0.70233    1.000
    C82      C        0.00241    0.92656    0.73050    1.000
    C83      C        0.09604    0.83275    0.74914    1.000
    C84      C        0.07600    0.92797    0.66900    1.000
    N104     N        0.05090    0.83800    0.77300    1.000
    N105     N        0.05130    0.94870    0.66690    1.000
    H61      H        0.05360    0.96640    0.65630    1.000
    H62      H        0.03320    0.94430    0.67610    1.000
    N106     N        0.11990    0.83450    0.72640    1.000
    H63      H        0.11770    0.84700    0.71000    1.000
    H64      H        0.13710    0.82300    0.72850    1.000
    N107     N        0.10384    0.93327    0.65570    1.000
    N108     N        0.12330    0.90920    0.66710    1.000
    N109     N        0.06740    0.81700    0.78850    1.000
    C85      C        0.96396    0.97221    0.74143    1.000
    H65      H        0.95230    0.96600    0.72320    1.000
    O43      O        0.14740    0.99220    0.65360    1.000
    N110     N        0.10700    0.89080    0.68510    1.000
    C86      C        0.16040    0.04350    0.69330    1.000
    H66      H        0.14240    0.03070    0.69750    1.000
    O44      O        0.18950    0.00310    0.62210    1.000
    C87      C        0.18010    0.03700    0.66780    1.000
    C88      C        0.17250    0.00850    0.64610    1.000
    Zn12     Zn       0.04612    0.37758    0.21649    1.000
    O45      O        0.02326    0.40817    0.24394    1.000
    N111     N        0.06894    0.34918    0.24811    1.000
    N112     N        0.07683    0.40260    0.18930    1.000
    N113     N        0.09618    0.31164    0.27370    1.000
    C89      C        0.99100    0.45477    0.25127    1.000
    O46      O        0.99365    0.42434    0.20233    1.000
    C90      C        0.00241    0.42656    0.23050    1.000
    C91      C        0.09604    0.33275    0.24914    1.000
    C92      C        0.07600    0.42797    0.16900    1.000
    N114     N        0.05090    0.33800    0.27300    1.000
    N115     N        0.05130    0.44870    0.16690    1.000
    H67      H        0.05360    0.46640    0.15630    1.000
    H68      H        0.03320    0.44430    0.17610    1.000
    N116     N        0.11990    0.33450    0.22640    1.000
    H69      H        0.11770    0.34700    0.21000    1.000
    H70      H        0.13710    0.32300    0.22850    1.000
    N117     N        0.10384    0.43327    0.15570    1.000
    N118     N        0.12330    0.40920    0.16710    1.000
    N119     N        0.06740    0.31700    0.28850    1.000
    C93      C        0.96396    0.47221    0.24143    1.000
    H71      H        0.95230    0.46600    0.22320    1.000
    O47      O        0.14740    0.49220    0.15360    1.000
    N120     N        0.10700    0.39080    0.18510    1.000
    C94      C        0.16040    0.54350    0.19330    1.000
    H72      H        0.14240    0.53070    0.19750    1.000
    O48      O        0.18950    0.50310    0.12210    1.000
    C95      C        0.18010    0.53700    0.16780    1.000
    C96      C        0.17250    0.50850    0.14610    1.000
    Zn13     Zn       0.70388    0.37242    0.21649    1.000
    O49      O        0.72674    0.34183    0.24394    1.000
    N121     N        0.68106    0.40082    0.24811    1.000
    N122     N        0.67317    0.34740    0.18930    1.000
    N123     N        0.65382    0.43836    0.27370    1.000
    C97      C        0.75900    0.29523    0.25127    1.000
    O50      O        0.75635    0.32566    0.20233    1.000
    C98      C        0.74759    0.32344    0.23050    1.000
    C99      C        0.65396    0.41725    0.24914    1.000
    C100     C        0.67400    0.32203    0.16900    1.000
    N124     N        0.69910    0.41200    0.27300    1.000
    N125     N        0.69870    0.30130    0.16690    1.000
    H73      H        0.69640    0.28360    0.15630    1.000
    H74      H        0.71680    0.30570    0.17610    1.000
    N126     N        0.63010    0.41550    0.22640    1.000
    H75      H        0.63230    0.40300    0.21000    1.000
    H76      H        0.61290    0.42700    0.22850    1.000
    N127     N        0.64616    0.31673    0.15570    1.000
    N128     N        0.62670    0.34080    0.16710    1.000
    N129     N        0.68260    0.43300    0.28850    1.000
    C101     C        0.78604    0.27779    0.24143    1.000
    H77      H        0.79770    0.28400    0.22320    1.000
    O51      O        0.60260    0.25780    0.15360    1.000
    N130     N        0.64300    0.35920    0.18510    1.000
    C102     C        0.58960    0.20650    0.19330    1.000
    H78      H        0.60760    0.21930    0.19750    1.000
    O52      O        0.56050    0.24690    0.12210    1.000
    C103     C        0.56990    0.21300    0.16780    1.000
    C104     C        0.57750    0.24150    0.14610    1.000
    Zn14     Zn       0.70388    0.87242    0.71649    1.000
    O53      O        0.72674    0.84183    0.74394    1.000
    N131     N        0.68106    0.90082    0.74811    1.000
    N132     N        0.67317    0.84740    0.68930    1.000
    N133     N        0.65382    0.93836    0.77370    1.000
    C105     C        0.75900    0.79523    0.75127    1.000
    O54      O        0.75635    0.82566    0.70233    1.000
    C106     C        0.74759    0.82344    0.73050    1.000
    C107     C        0.65396    0.91725    0.74914    1.000
    C108     C        0.67400    0.82203    0.66900    1.000
    N134     N        0.69910    0.91200    0.77300    1.000
    N135     N        0.69870    0.80130    0.66690    1.000
    H79      H        0.69640    0.78360    0.65630    1.000
    H80      H        0.71680    0.80570    0.67610    1.000
    N136     N        0.63010    0.91550    0.72640    1.000
    H81      H        0.63230    0.90300    0.71000    1.000
    H82      H        0.61290    0.92700    0.72850    1.000
    N137     N        0.64616    0.81673    0.65570    1.000
    N138     N        0.62670    0.84080    0.66710    1.000
    N139     N        0.68260    0.93300    0.78850    1.000
    C109     C        0.78604    0.77779    0.74143    1.000
    H83      H        0.79770    0.78400    0.72320    1.000
    O55      O        0.60260    0.75780    0.65360    1.000
    N140     N        0.64300    0.85920    0.68510    1.000
    C110     C        0.58960    0.70650    0.69330    1.000
    H84      H        0.60760    0.71930    0.69750    1.000
    O56      O        0.56050    0.74690    0.62210    1.000
    C111     C        0.56990    0.71300    0.66780    1.000
    C112     C        0.57750    0.74150    0.64610    1.000
    Zn15     Zn       0.20388    0.37242    0.71649    1.000
    O57      O        0.22674    0.34183    0.74394    1.000
    N141     N        0.18106    0.40082    0.74811    1.000
    N142     N        0.17317    0.34740    0.68930    1.000
    N143     N        0.15382    0.43836    0.77370    1.000
    C113     C        0.25900    0.29523    0.75127    1.000
    O58      O        0.25635    0.32566    0.70233    1.000
    C114     C        0.24759    0.32344    0.73050    1.000
    C115     C        0.15396    0.41725    0.74914    1.000
    C116     C        0.17400    0.32203    0.66900    1.000
    N144     N        0.19910    0.41200    0.77300    1.000
    N145     N        0.19870    0.30130    0.66690    1.000
    H85      H        0.19640    0.28360    0.65630    1.000
    H86      H        0.21680    0.30570    0.67610    1.000
    N146     N        0.13010    0.41550    0.72640    1.000
    H87      H        0.13230    0.40300    0.71000    1.000
    H88      H        0.11290    0.42700    0.72850    1.000
    N147     N        0.14616    0.31673    0.65570    1.000
    N148     N        0.12670    0.34080    0.66710    1.000
    N149     N        0.18260    0.43300    0.78850    1.000
    C117     C        0.28604    0.27779    0.74143    1.000
    H89      H        0.29770    0.28400    0.72320    1.000
    O59      O        0.10260    0.25780    0.65360    1.000
    N150     N        0.14300    0.35920    0.68510    1.000
    C118     C        0.08960    0.20650    0.69330    1.000
    H90      H        0.10760    0.21930    0.69750    1.000
    O60      O        0.06050    0.24690    0.62210    1.000
    C119     C        0.06990    0.21300    0.66780    1.000
    C120     C        0.07750    0.24150    0.64610    1.000
    Zn16     Zn       0.20388    0.87242    0.21649    1.000
    O61      O        0.22674    0.84183    0.24394    1.000
    N151     N        0.18106    0.90082    0.24811    1.000
    N152     N        0.17317    0.84740    0.18930    1.000
    N153     N        0.15382    0.93836    0.27370    1.000
    C121     C        0.25900    0.79523    0.25127    1.000
    O62      O        0.25635    0.82566    0.20233    1.000
    C122     C        0.24759    0.82344    0.23050    1.000
    C123     C        0.15396    0.91725    0.24914    1.000
    C124     C        0.17400    0.82203    0.16900    1.000
    N154     N        0.19910    0.91200    0.27300    1.000
    N155     N        0.19870    0.80130    0.16690    1.000
    H91      H        0.19640    0.78360    0.15630    1.000
    H92      H        0.21680    0.80570    0.17610    1.000
    N156     N        0.13010    0.91550    0.22640    1.000
    H93      H        0.13230    0.90300    0.21000    1.000
    H94      H        0.11290    0.92700    0.22850    1.000
    N157     N        0.14616    0.81673    0.15570    1.000
    N158     N        0.12670    0.84080    0.16710    1.000
    N159     N        0.18260    0.93300    0.28850    1.000
    C125     C        0.28604    0.77779    0.24143    1.000
    H95      H        0.29770    0.78400    0.22320    1.000
    O63      O        0.10260    0.75780    0.15360    1.000
    N160     N        0.14300    0.85920    0.18510    1.000
    C126     C        0.08960    0.70650    0.19330    1.000
    H96      H        0.10760    0.71930    0.19750    1.000
    O64      O        0.06050    0.74690    0.12210    1.000
    C127     C        0.06990    0.71300    0.16780    1.000
    C128     C        0.07750    0.74150    0.14610    1.000
    Zn17     Zn       0.03351    0.70388    0.87758    1.000
    O65      O        0.00606    0.72674    0.90817    1.000
    N161     N        0.00189    0.68106    0.84918    1.000
    N162     N        0.06070    0.67317    0.90260    1.000
    N163     N        0.97630    0.65382    0.81164    1.000
    C129     C        0.99873    0.75900    0.95477    1.000
    O66      O        0.04767    0.75635    0.92434    1.000
    C130     C        0.01950    0.74759    0.92656    1.000
    C131     C        0.00086    0.65396    0.83275    1.000
    C132     C        0.08100    0.67400    0.92797    1.000
    N164     N        0.97700    0.69910    0.83800    1.000
    N165     N        0.08310    0.69870    0.94870    1.000
    H97      H        0.09370    0.69640    0.96640    1.000
    H98      H        0.07390    0.71680    0.94430    1.000
    N166     N        0.02360    0.63010    0.83450    1.000
    H99      H        0.04000    0.63230    0.84700    1.000
    H100     H        0.02150    0.61290    0.82300    1.000
    N167     N        0.09430    0.64616    0.93327    1.000
    N168     N        0.08290    0.62670    0.90920    1.000
    N169     N        0.96150    0.68260    0.81700    1.000
    C133     C        0.00857    0.78604    0.97221    1.000
    H101     H        0.02680    0.79770    0.96600    1.000
    O67      O        0.09640    0.60260    0.99220    1.000
    N170     N        0.06490    0.64300    0.89080    1.000
    C134     C        0.05670    0.58960    0.04350    1.000
    H102     H        0.05250    0.60760    0.03070    1.000
    O68      O        0.12790    0.56050    0.00310    1.000
    C135     C        0.08220    0.56990    0.03700    1.000
    C136     C        0.10390    0.57750    0.00850    1.000
    Zn18     Zn       0.03351    0.20388    0.37758    1.000
    O69      O        0.00606    0.22674    0.40817    1.000
    N171     N        0.00189    0.18106    0.34918    1.000
    N172     N        0.06070    0.17317    0.40260    1.000
    N173     N        0.97630    0.15382    0.31164    1.000
    C137     C        0.99873    0.25900    0.45477    1.000
    O70      O        0.04767    0.25635    0.42434    1.000
    C138     C        0.01950    0.24759    0.42656    1.000
    C139     C        0.00086    0.15396    0.33275    1.000
    C140     C        0.08100    0.17400    0.42797    1.000
    N174     N        0.97700    0.19910    0.33800    1.000
    N175     N        0.08310    0.19870    0.44870    1.000
    H103     H        0.09370    0.19640    0.46640    1.000
    H104     H        0.07390    0.21680    0.44430    1.000
    N176     N        0.02360    0.13010    0.33450    1.000
    H105     H        0.04000    0.13230    0.34700    1.000
    H106     H        0.02150    0.11290    0.32300    1.000
    N177     N        0.09430    0.14616    0.43327    1.000
    N178     N        0.08290    0.12670    0.40920    1.000
    N179     N        0.96150    0.18260    0.31700    1.000
    C141     C        0.00857    0.28604    0.47221    1.000
    H107     H        0.02680    0.29770    0.46600    1.000
    O71      O        0.09640    0.10260    0.49220    1.000
    N180     N        0.06490    0.14300    0.39080    1.000
    C142     C        0.05670    0.08960    0.54350    1.000
    H108     H        0.05250    0.10760    0.53070    1.000
    O72      O        0.12790    0.06050    0.50310    1.000
    C143     C        0.08220    0.06990    0.53700    1.000
    C144     C        0.10390    0.07750    0.50850    1.000
    Zn19     Zn       0.53351    0.70388    0.37758    1.000
    O73      O        0.50606    0.72674    0.40817    1.000
    N181     N        0.50189    0.68106    0.34918    1.000
    N182     N        0.56070    0.67317    0.40260    1.000
    N183     N        0.47630    0.65382    0.31164    1.000
    C145     C        0.49873    0.75900    0.45477    1.000
    O74      O        0.54767    0.75635    0.42434    1.000
    C146     C        0.51950    0.74759    0.42656    1.000
    C147     C        0.50086    0.65396    0.33275    1.000
    C148     C        0.58100    0.67400    0.42797    1.000
    N184     N        0.47700    0.69910    0.33800    1.000
    N185     N        0.58310    0.69870    0.44870    1.000
    H109     H        0.59370    0.69640    0.46640    1.000
    H110     H        0.57390    0.71680    0.44430    1.000
    N186     N        0.52360    0.63010    0.33450    1.000
    H111     H        0.54000    0.63230    0.34700    1.000
    H112     H        0.52150    0.61290    0.32300    1.000
    N187     N        0.59430    0.64616    0.43327    1.000
    N188     N        0.58290    0.62670    0.40920    1.000
    N189     N        0.46150    0.68260    0.31700    1.000
    C149     C        0.50857    0.78604    0.47221    1.000
    H113     H        0.52680    0.79770    0.46600    1.000
    O75      O        0.59640    0.60260    0.49220    1.000
    N190     N        0.56490    0.64300    0.39080    1.000
    C150     C        0.55670    0.58960    0.54350    1.000
    H114     H        0.55250    0.60760    0.53070    1.000
    O76      O        0.62790    0.56050    0.50310    1.000
    C151     C        0.58220    0.56990    0.53700    1.000
    C152     C        0.60390    0.57750    0.50850    1.000
    Zn20     Zn       0.53351    0.20388    0.87758    1.000
    O77      O        0.50606    0.22674    0.90817    1.000
    N191     N        0.50189    0.18106    0.84918    1.000
    N192     N        0.56070    0.17317    0.90260    1.000
    N193     N        0.47630    0.15382    0.81164    1.000
    C153     C        0.49873    0.25900    0.95477    1.000
    O78      O        0.54767    0.25635    0.92434    1.000
    C154     C        0.51950    0.24759    0.92656    1.000
    C155     C        0.50086    0.15396    0.83275    1.000
    C156     C        0.58100    0.17400    0.92797    1.000
    N194     N        0.47700    0.19910    0.83800    1.000
    N195     N        0.58310    0.19870    0.94870    1.000
    H115     H        0.59370    0.19640    0.96640    1.000
    H116     H        0.57390    0.21680    0.94430    1.000
    N196     N        0.52360    0.13010    0.83450    1.000
    H117     H        0.54000    0.13230    0.84700    1.000
    H118     H        0.52150    0.11290    0.82300    1.000
    N197     N        0.59430    0.14616    0.93327    1.000
    N198     N        0.58290    0.12670    0.90920    1.000
    N199     N        0.46150    0.18260    0.81700    1.000
    C157     C        0.50857    0.28604    0.97221    1.000
    H119     H        0.52680    0.29770    0.96600    1.000
    O79      O        0.59640    0.10260    0.99220    1.000
    N200     N        0.56490    0.14300    0.89080    1.000
    C158     C        0.55670    0.08960    0.04350    1.000
    H120     H        0.55250    0.10760    0.03070    1.000
    O80      O        0.62790    0.06050    0.00310    1.000
    C159     C        0.58220    0.06990    0.03700    1.000
    C160     C        0.60390    0.07750    0.00850    1.000
    Zn21     Zn       0.03351    0.54612    0.37242    1.000
    O81      O        0.00606    0.52326    0.34183    1.000
    N201     N        0.00189    0.56894    0.40082    1.000
    N202     N        0.06070    0.57683    0.34740    1.000
    N203     N        0.97630    0.59618    0.43836    1.000
    C161     C        0.99873    0.49100    0.29523    1.000
    O82      O        0.04767    0.49365    0.32566    1.000
    C162     C        0.01950    0.50241    0.32344    1.000
    C163     C        0.00086    0.59604    0.41725    1.000
    C164     C        0.08100    0.57600    0.32203    1.000
    N204     N        0.97700    0.55090    0.41200    1.000
    N205     N        0.08310    0.55130    0.30130    1.000
    H121     H        0.09370    0.55360    0.28360    1.000
    H122     H        0.07390    0.53320    0.30570    1.000
    N206     N        0.02360    0.61990    0.41550    1.000
    H123     H        0.04000    0.61770    0.40300    1.000
    H124     H        0.02150    0.63710    0.42700    1.000
    N207     N        0.09430    0.60384    0.31673    1.000
    N208     N        0.08290    0.62330    0.34080    1.000
    N209     N        0.96150    0.56740    0.43300    1.000
    C165     C        0.00857    0.46396    0.27779    1.000
    H125     H        0.02680    0.45230    0.28400    1.000
    O83      O        0.09640    0.64740    0.25780    1.000
    N210     N        0.06490    0.60700    0.35920    1.000
    C166     C        0.05670    0.66040    0.20650    1.000
    H126     H        0.05250    0.64240    0.21930    1.000
    O84      O        0.12790    0.68950    0.24690    1.000
    C167     C        0.08220    0.68010    0.21300    1.000
    C168     C        0.10390    0.67250    0.24150    1.000
    Zn22     Zn       0.03351    0.04612    0.87242    1.000
    O85      O        0.00606    0.02326    0.84183    1.000
    N211     N        0.00189    0.06894    0.90082    1.000
    N212     N        0.06070    0.07683    0.84740    1.000
    N213     N        0.97630    0.09618    0.93836    1.000
    C169     C        0.99873    0.99100    0.79523    1.000
    O86      O        0.04767    0.99365    0.82566    1.000
    C170     C        0.01950    0.00241    0.82344    1.000
    C171     C        0.00086    0.09604    0.91725    1.000
    C172     C        0.08100    0.07600    0.82203    1.000
    N214     N        0.97700    0.05090    0.91200    1.000
    N215     N        0.08310    0.05130    0.80130    1.000
    H127     H        0.09370    0.05360    0.78360    1.000
    H128     H        0.07390    0.03320    0.80570    1.000
    N216     N        0.02360    0.11990    0.91550    1.000
    H129     H        0.04000    0.11770    0.90300    1.000
    H130     H        0.02150    0.13710    0.92700    1.000
    N217     N        0.09430    0.10384    0.81673    1.000
    N218     N        0.08290    0.12330    0.84080    1.000
    N219     N        0.96150    0.06740    0.93300    1.000
    C173     C        0.00857    0.96396    0.77779    1.000
    H131     H        0.02680    0.95230    0.78400    1.000
    O87      O        0.09640    0.14740    0.75780    1.000
    N220     N        0.06490    0.10700    0.85920    1.000
    C174     C        0.05670    0.16040    0.70650    1.000
    H132     H        0.05250    0.14240    0.71930    1.000
    O88      O        0.12790    0.18950    0.74690    1.000
    C175     C        0.08220    0.18010    0.71300    1.000
    C176     C        0.10390    0.17250    0.74150    1.000
    Zn23     Zn       0.53351    0.54612    0.87242    1.000
    O89      O        0.50606    0.52326    0.84183    1.000
    N221     N        0.50189    0.56894    0.90082    1.000
    N222     N        0.56070    0.57683    0.84740    1.000
    N223     N        0.47630    0.59618    0.93836    1.000
    C177     C        0.49873    0.49100    0.79523    1.000
    O90      O        0.54767    0.49365    0.82566    1.000
    C178     C        0.51950    0.50241    0.82344    1.000
    C179     C        0.50086    0.59604    0.91725    1.000
    C180     C        0.58100    0.57600    0.82203    1.000
    N224     N        0.47700    0.55090    0.91200    1.000
    N225     N        0.58310    0.55130    0.80130    1.000
    H133     H        0.59370    0.55360    0.78360    1.000
    H134     H        0.57390    0.53320    0.80570    1.000
    N226     N        0.52360    0.61990    0.91550    1.000
    H135     H        0.54000    0.61770    0.90300    1.000
    H136     H        0.52150    0.63710    0.92700    1.000
    N227     N        0.59430    0.60384    0.81673    1.000
    N228     N        0.58290    0.62330    0.84080    1.000
    N229     N        0.46150    0.56740    0.93300    1.000
    C181     C        0.50857    0.46396    0.77779    1.000
    H137     H        0.52680    0.45230    0.78400    1.000
    O91      O        0.59640    0.64740    0.75780    1.000
    N230     N        0.56490    0.60700    0.85920    1.000
    C182     C        0.55670    0.66040    0.70650    1.000
    H138     H        0.55250    0.64240    0.71930    1.000
    O92      O        0.62790    0.68950    0.74690    1.000
    C183     C        0.58220    0.68010    0.71300    1.000
    C184     C        0.60390    0.67250    0.74150    1.000
    Zn24     Zn       0.53351    0.04612    0.37242    1.000
    O93      O        0.50606    0.02326    0.34183    1.000
    N231     N        0.50189    0.06894    0.40082    1.000
    N232     N        0.56070    0.07683    0.34740    1.000
    N233     N        0.47630    0.09618    0.43836    1.000
    C185     C        0.49873    0.99100    0.29523    1.000
    O94      O        0.54767    0.99365    0.32566    1.000
    C186     C        0.51950    0.00241    0.32344    1.000
    C187     C        0.50086    0.09604    0.41725    1.000
    C188     C        0.58100    0.07600    0.32203    1.000
    N234     N        0.47700    0.05090    0.41200    1.000
    N235     N        0.58310    0.05130    0.30130    1.000
    H139     H        0.59370    0.05360    0.28360    1.000
    H140     H        0.57390    0.03320    0.30570    1.000
    N236     N        0.52360    0.11990    0.41550    1.000
    H141     H        0.54000    0.11770    0.40300    1.000
    H142     H        0.52150    0.13710    0.42700    1.000
    N237     N        0.59430    0.10384    0.31673    1.000
    N238     N        0.58290    0.12330    0.34080    1.000
    N239     N        0.46150    0.06740    0.43300    1.000
    C189     C        0.50857    0.96396    0.27779    1.000
    H143     H        0.52680    0.95230    0.28400    1.000
    O95      O        0.59640    0.14740    0.25780    1.000
    N240     N        0.56490    0.10700    0.35920    1.000
    C190     C        0.55670    0.16040    0.20650    1.000
    H144     H        0.55250    0.14240    0.21930    1.000
    O96      O        0.62790    0.18950    0.24690    1.000
    C191     C        0.58220    0.18010    0.21300    1.000
    C192     C        0.60390    0.17250    0.24150    1.000
    Zn25     Zn       0.21649    0.54612    0.87758    1.000
    O97      O        0.24394    0.52326    0.90817    1.000
    N241     N        0.24811    0.56894    0.84918    1.000
    N242     N        0.18930    0.57683    0.90260    1.000
    N243     N        0.27370    0.59618    0.81164    1.000
    C193     C        0.25127    0.49100    0.95477    1.000
    O98      O        0.20233    0.49365    0.92434    1.000
    C194     C        0.23050    0.50241    0.92656    1.000
    C195     C        0.24914    0.59604    0.83275    1.000
    C196     C        0.16900    0.57600    0.92797    1.000
    N244     N        0.27300    0.55090    0.83800    1.000
    N245     N        0.16690    0.55130    0.94870    1.000
    H145     H        0.15630    0.55360    0.96640    1.000
    H146     H        0.17610    0.53320    0.94430    1.000
    N246     N        0.22640    0.61990    0.83450    1.000
    H147     H        0.21000    0.61770    0.84700    1.000
    H148     H        0.22850    0.63710    0.82300    1.000
    N247     N        0.15570    0.60384    0.93327    1.000
    N248     N        0.16710    0.62330    0.90920    1.000
    N249     N        0.28850    0.56740    0.81700    1.000
    C197     C        0.24143    0.46396    0.97221    1.000
    H149     H        0.22320    0.45230    0.96600    1.000
    O99      O        0.15360    0.64740    0.99220    1.000
    N250     N        0.18510    0.60700    0.89080    1.000
    C198     C        0.19330    0.66040    0.04350    1.000
    H150     H        0.19750    0.64240    0.03070    1.000
    O100     O        0.12210    0.68950    0.00310    1.000
    C199     C        0.16780    0.68010    0.03700    1.000
    C200     C        0.14610    0.67250    0.00850    1.000
    Zn26     Zn       0.21649    0.04612    0.37758    1.000
    O101     O        0.24394    0.02326    0.40817    1.000
    N251     N        0.24811    0.06894    0.34918    1.000
    N252     N        0.18930    0.07683    0.40260    1.000
    N253     N        0.27370    0.09618    0.31164    1.000
    C201     C        0.25127    0.99100    0.45477    1.000
    O102     O        0.20233    0.99365    0.42434    1.000
    C202     C        0.23050    0.00241    0.42656    1.000
    C203     C        0.24914    0.09604    0.33275    1.000
    C204     C        0.16900    0.07600    0.42797    1.000
    N254     N        0.27300    0.05090    0.33800    1.000
    N255     N        0.16690    0.05130    0.44870    1.000
    H151     H        0.15630    0.05360    0.46640    1.000
    H152     H        0.17610    0.03320    0.44430    1.000
    N256     N        0.22640    0.11990    0.33450    1.000
    H153     H        0.21000    0.11770    0.34700    1.000
    H154     H        0.22850    0.13710    0.32300    1.000
    N257     N        0.15570    0.10384    0.43327    1.000
    N258     N        0.16710    0.12330    0.40920    1.000
    N259     N        0.28850    0.06740    0.31700    1.000
    C205     C        0.24143    0.96396    0.47221    1.000
    H155     H        0.22320    0.95230    0.46600    1.000
    O103     O        0.15360    0.14740    0.49220    1.000
    N260     N        0.18510    0.10700    0.39080    1.000
    C206     C        0.19330    0.16040    0.54350    1.000
    H156     H        0.19750    0.14240    0.53070    1.000
    O104     O        0.12210    0.18950    0.50310    1.000
    C207     C        0.16780    0.18010    0.53700    1.000
    C208     C        0.14610    0.17250    0.50850    1.000
    Zn27     Zn       0.71649    0.54612    0.37758    1.000
    O105     O        0.74394    0.52326    0.40817    1.000
    N261     N        0.74811    0.56894    0.34918    1.000
    N262     N        0.68930    0.57683    0.40260    1.000
    N263     N        0.77370    0.59618    0.31164    1.000
    C209     C        0.75127    0.49100    0.45477    1.000
    O106     O        0.70233    0.49365    0.42434    1.000
    C210     C        0.73050    0.50241    0.42656    1.000
    C211     C        0.74914    0.59604    0.33275    1.000
    C212     C        0.66900    0.57600    0.42797    1.000
    N264     N        0.77300    0.55090    0.33800    1.000
    N265     N        0.66690    0.55130    0.44870    1.000
    H157     H        0.65630    0.55360    0.46640    1.000
    H158     H        0.67610    0.53320    0.44430    1.000
    N266     N        0.72640    0.61990    0.33450    1.000
    H159     H        0.71000    0.61770    0.34700    1.000
    H160     H        0.72850    0.63710    0.32300    1.000
    N267     N        0.65570    0.60384    0.43327    1.000
    N268     N        0.66710    0.62330    0.40920    1.000
    N269     N        0.78850    0.56740    0.31700    1.000
    C213     C        0.74143    0.46396    0.47221    1.000
    H161     H        0.72320    0.45230    0.46600    1.000
    O107     O        0.65360    0.64740    0.49220    1.000
    N270     N        0.68510    0.60700    0.39080    1.000
    C214     C        0.69330    0.66040    0.54350    1.000
    H162     H        0.69750    0.64240    0.53070    1.000
    O108     O        0.62210    0.68950    0.50310    1.000
    C215     C        0.66780    0.68010    0.53700    1.000
    C216     C        0.64610    0.67250    0.50850    1.000
    Zn28     Zn       0.71649    0.04612    0.87758    1.000
    O109     O        0.74394    0.02326    0.90817    1.000
    N271     N        0.74811    0.06894    0.84918    1.000
    N272     N        0.68930    0.07683    0.90260    1.000
    N273     N        0.77370    0.09618    0.81164    1.000
    C217     C        0.75127    0.99100    0.95477    1.000
    O110     O        0.70233    0.99365    0.92434    1.000
    C218     C        0.73050    0.00241    0.92656    1.000
    C219     C        0.74914    0.09604    0.83275    1.000
    C220     C        0.66900    0.07600    0.92797    1.000
    N274     N        0.77300    0.05090    0.83800    1.000
    N275     N        0.66690    0.05130    0.94870    1.000
    H163     H        0.65630    0.05360    0.96640    1.000
    H164     H        0.67610    0.03320    0.94430    1.000
    N276     N        0.72640    0.11990    0.83450    1.000
    H165     H        0.71000    0.11770    0.84700    1.000
    H166     H        0.72850    0.13710    0.82300    1.000
    N277     N        0.65570    0.10384    0.93327    1.000
    N278     N        0.66710    0.12330    0.90920    1.000
    N279     N        0.78850    0.06740    0.81700    1.000
    C221     C        0.74143    0.96396    0.97221    1.000
    H167     H        0.72320    0.95230    0.96600    1.000
    O111     O        0.65360    0.14740    0.99220    1.000
    N280     N        0.68510    0.10700    0.89080    1.000
    C222     C        0.69330    0.16040    0.04350    1.000
    H168     H        0.69750    0.14240    0.03070    1.000
    O112     O        0.62210    0.18950    0.00310    1.000
    C223     C        0.66780    0.18010    0.03700    1.000
    C224     C        0.64610    0.17250    0.00850    1.000
    Zn29     Zn       0.21649    0.70388    0.37242    1.000
    O113     O        0.24394    0.72674    0.34183    1.000
    N281     N        0.24811    0.68106    0.40082    1.000
    N282     N        0.18930    0.67317    0.34740    1.000
    N283     N        0.27370    0.65382    0.43836    1.000
    C225     C        0.25127    0.75900    0.29523    1.000
    O114     O        0.20233    0.75635    0.32566    1.000
    C226     C        0.23050    0.74759    0.32344    1.000
    C227     C        0.24914    0.65396    0.41725    1.000
    C228     C        0.16900    0.67400    0.32203    1.000
    N284     N        0.27300    0.69910    0.41200    1.000
    N285     N        0.16690    0.69870    0.30130    1.000
    H169     H        0.15630    0.69640    0.28360    1.000
    H170     H        0.17610    0.71680    0.30570    1.000
    N286     N        0.22640    0.63010    0.41550    1.000
    H171     H        0.21000    0.63230    0.40300    1.000
    H172     H        0.22850    0.61290    0.42700    1.000
    N287     N        0.15570    0.64616    0.31673    1.000
    N288     N        0.16710    0.62670    0.34080    1.000
    N289     N        0.28850    0.68260    0.43300    1.000
    C229     C        0.24143    0.78604    0.27779    1.000
    H173     H        0.22320    0.79770    0.28400    1.000
    O115     O        0.15360    0.60260    0.25780    1.000
    N290     N        0.18510    0.64300    0.35920    1.000
    C230     C        0.19330    0.58960    0.20650    1.000
    H174     H        0.19750    0.60760    0.21930    1.000
    O116     O        0.12210    0.56050    0.24690    1.000
    C231     C        0.16780    0.56990    0.21300    1.000
    C232     C        0.14610    0.57750    0.24150    1.000
    Zn30     Zn       0.21649    0.20388    0.87242    1.000
    O117     O        0.24394    0.22674    0.84183    1.000
    N291     N        0.24811    0.18106    0.90082    1.000
    N292     N        0.18930    0.17317    0.84740    1.000
    N293     N        0.27370    0.15382    0.93836    1.000
    C233     C        0.25127    0.25900    0.79523    1.000
    O118     O        0.20233    0.25635    0.82566    1.000
    C234     C        0.23050    0.24759    0.82344    1.000
    C235     C        0.24914    0.15396    0.91725    1.000
    C236     C        0.16900    0.17400    0.82203    1.000
    N294     N        0.27300    0.19910    0.91200    1.000
    N295     N        0.16690    0.19870    0.80130    1.000
    H175     H        0.15630    0.19640    0.78360    1.000
    H176     H        0.17610    0.21680    0.80570    1.000
    N296     N        0.22640    0.13010    0.91550    1.000
    H177     H        0.21000    0.13230    0.90300    1.000
    H178     H        0.22850    0.11290    0.92700    1.000
    N297     N        0.15570    0.14616    0.81673    1.000
    N298     N        0.16710    0.12670    0.84080    1.000
    N299     N        0.28850    0.18260    0.93300    1.000
    C237     C        0.24143    0.28604    0.77779    1.000
    H179     H        0.22320    0.29770    0.78400    1.000
    O119     O        0.15360    0.10260    0.75780    1.000
    N300     N        0.18510    0.14300    0.85920    1.000
    C238     C        0.19330    0.08960    0.70650    1.000
    H180     H        0.19750    0.10760    0.71930    1.000
    O120     O        0.12210    0.06050    0.74690    1.000
    C239     C        0.16780    0.06990    0.71300    1.000
    C240     C        0.14610    0.07750    0.74150    1.000
    Zn31     Zn       0.71649    0.70388    0.87242    1.000
    O121     O        0.74394    0.72674    0.84183    1.000
    N301     N        0.74811    0.68106    0.90082    1.000
    N302     N        0.68930    0.67317    0.84740    1.000
    N303     N        0.77370    0.65382    0.93836    1.000
    C241     C        0.75127    0.75900    0.79523    1.000
    O122     O        0.70233    0.75635    0.82566    1.000
    C242     C        0.73050    0.74759    0.82344    1.000
    C243     C        0.74914    0.65396    0.91725    1.000
    C244     C        0.66900    0.67400    0.82203    1.000
    N304     N        0.77300    0.69910    0.91200    1.000
    N305     N        0.66690    0.69870    0.80130    1.000
    H181     H        0.65630    0.69640    0.78360    1.000
    H182     H        0.67610    0.71680    0.80570    1.000
    N306     N        0.72640    0.63010    0.91550    1.000
    H183     H        0.71000    0.63230    0.90300    1.000
    H184     H        0.72850    0.61290    0.92700    1.000
    N307     N        0.65570    0.64616    0.81673    1.000
    N308     N        0.66710    0.62670    0.84080    1.000
    N309     N        0.78850    0.68260    0.93300    1.000
    C245     C        0.74143    0.78604    0.77779    1.000
    H185     H        0.72320    0.79770    0.78400    1.000
    O123     O        0.65360    0.60260    0.75780    1.000
    N310     N        0.68510    0.64300    0.85920    1.000
    C246     C        0.69330    0.58960    0.70650    1.000
    H186     H        0.69750    0.60760    0.71930    1.000
    O124     O        0.62210    0.56050    0.74690    1.000
    C247     C        0.66780    0.56990    0.71300    1.000
    C248     C        0.64610    0.57750    0.74150    1.000
    Zn32     Zn       0.71649    0.20388    0.37242    1.000
    O125     O        0.74394    0.22674    0.34183    1.000
    N311     N        0.74811    0.18106    0.40082    1.000
    N312     N        0.68930    0.17317    0.34740    1.000
    N313     N        0.77370    0.15382    0.43836    1.000
    C249     C        0.75127    0.25900    0.29523    1.000
    O126     O        0.70233    0.25635    0.32566    1.000
    C250     C        0.73050    0.24759    0.32344    1.000
    C251     C        0.74914    0.15396    0.41725    1.000
    C252     C        0.66900    0.17400    0.32203    1.000
    N314     N        0.77300    0.19910    0.41200    1.000
    N315     N        0.66690    0.19870    0.30130    1.000
    H187     H        0.65630    0.19640    0.28360    1.000
    H188     H        0.67610    0.21680    0.30570    1.000
    N316     N        0.72640    0.13010    0.41550    1.000
    H189     H        0.71000    0.13230    0.40300    1.000
    H190     H        0.72850    0.11290    0.42700    1.000
    N317     N        0.65570    0.14616    0.31673    1.000
    N318     N        0.66710    0.12670    0.34080    1.000
    N319     N        0.78850    0.18260    0.43300    1.000
    C253     C        0.74143    0.28604    0.27779    1.000
    H191     H        0.72320    0.29770    0.28400    1.000
    O127     O        0.65360    0.10260    0.25780    1.000
    N320     N        0.68510    0.14300    0.35920    1.000
    C254     C        0.69330    0.08960    0.20650    1.000
    H192     H        0.69750    0.10760    0.21930    1.000
    O128     O        0.62210    0.06050    0.24690    1.000
    C255     C        0.66780    0.06990    0.21300    1.000
    C256     C        0.64610    0.07750    0.24150    1.000
    Zn33     Zn       0.87758    0.03351    0.70388    1.000
    O129     O        0.90817    0.00606    0.72674    1.000
    N321     N        0.84918    0.00189    0.68106    1.000
    N322     N        0.90260    0.06070    0.67317    1.000
    N323     N        0.81164    0.97630    0.65382    1.000
    C257     C        0.95477    0.99873    0.75900    1.000
    O130     O        0.92434    0.04767    0.75635    1.000
    C258     C        0.92656    0.01950    0.74759    1.000
    C259     C        0.83275    0.00086    0.65396    1.000
    C260     C        0.92797    0.08100    0.67400    1.000
    N324     N        0.83800    0.97700    0.69910    1.000
    N325     N        0.94870    0.08310    0.69870    1.000
    H193     H        0.96640    0.09370    0.69640    1.000
    H194     H        0.94430    0.07390    0.71680    1.000
    N326     N        0.83450    0.02360    0.63010    1.000
    H195     H        0.84700    0.04000    0.63230    1.000
    H196     H        0.82300    0.02150    0.61290    1.000
    N327     N        0.93327    0.09430    0.64616    1.000
    N328     N        0.90920    0.08290    0.62670    1.000
    N329     N        0.81700    0.96150    0.68260    1.000
    C261     C        0.97221    0.00857    0.78604    1.000
    H197     H        0.96600    0.02680    0.79770    1.000
    O131     O        0.99220    0.09640    0.60260    1.000
    N330     N        0.89080    0.06490    0.64300    1.000
    C262     C        0.04350    0.05670    0.58960    1.000
    H198     H        0.03070    0.05250    0.60760    1.000
    O132     O        0.00310    0.12790    0.56050    1.000
    C263     C        0.03700    0.08220    0.56990    1.000
    C264     C        0.00850    0.10390    0.57750    1.000
    Zn34     Zn       0.87758    0.53351    0.20388    1.000
    O133     O        0.90817    0.50606    0.22674    1.000
    N331     N        0.84918    0.50189    0.18106    1.000
    N332     N        0.90260    0.56070    0.17317    1.000
    N333     N        0.81164    0.47630    0.15382    1.000
    C265     C        0.95477    0.49873    0.25900    1.000
    O134     O        0.92434    0.54767    0.25635    1.000
    C266     C        0.92656    0.51950    0.24759    1.000
    C267     C        0.83275    0.50086    0.15396    1.000
    C268     C        0.92797    0.58100    0.17400    1.000
    N334     N        0.83800    0.47700    0.19910    1.000
    N335     N        0.94870    0.58310    0.19870    1.000
    H199     H        0.96640    0.59370    0.19640    1.000
    H200     H        0.94430    0.57390    0.21680    1.000
    N336     N        0.83450    0.52360    0.13010    1.000
    H201     H        0.84700    0.54000    0.13230    1.000
    H202     H        0.82300    0.52150    0.11290    1.000
    N337     N        0.93327    0.59430    0.14616    1.000
    N338     N        0.90920    0.58290    0.12670    1.000
    N339     N        0.81700    0.46150    0.18260    1.000
    C269     C        0.97221    0.50857    0.28604    1.000
    H203     H        0.96600    0.52680    0.29770    1.000
    O135     O        0.99220    0.59640    0.10260    1.000
    N340     N        0.89080    0.56490    0.14300    1.000
    C270     C        0.04350    0.55670    0.08960    1.000
    H204     H        0.03070    0.55250    0.10760    1.000
    O136     O        0.00310    0.62790    0.06050    1.000
    C271     C        0.03700    0.58220    0.06990    1.000
    C272     C        0.00850    0.60390    0.07750    1.000
    Zn35     Zn       0.37758    0.03351    0.20388    1.000
    O137     O        0.40817    0.00606    0.22674    1.000
    N341     N        0.34918    0.00189    0.18106    1.000
    N342     N        0.40260    0.06070    0.17317    1.000
    N343     N        0.31164    0.97630    0.15382    1.000
    C273     C        0.45477    0.99873    0.25900    1.000
    O138     O        0.42434    0.04767    0.25635    1.000
    C274     C        0.42656    0.01950    0.24759    1.000
    C275     C        0.33275    0.00086    0.15396    1.000
    C276     C        0.42797    0.08100    0.17400    1.000
    N344     N        0.33800    0.97700    0.19910    1.000
    N345     N        0.44870    0.08310    0.19870    1.000
    H205     H        0.46640    0.09370    0.19640    1.000
    H206     H        0.44430    0.07390    0.21680    1.000
    N346     N        0.33450    0.02360    0.13010    1.000
    H207     H        0.34700    0.04000    0.13230    1.000
    H208     H        0.32300    0.02150    0.11290    1.000
    N347     N        0.43327    0.09430    0.14616    1.000
    N348     N        0.40920    0.08290    0.12670    1.000
    N349     N        0.31700    0.96150    0.18260    1.000
    C277     C        0.47221    0.00857    0.28604    1.000
    H209     H        0.46600    0.02680    0.29770    1.000
    O139     O        0.49220    0.09640    0.10260    1.000
    N350     N        0.39080    0.06490    0.14300    1.000
    C278     C        0.54350    0.05670    0.08960    1.000
    H210     H        0.53070    0.05250    0.10760    1.000
    O140     O        0.50310    0.12790    0.06050    1.000
    C279     C        0.53700    0.08220    0.06990    1.000
    C280     C        0.50850    0.10390    0.07750    1.000
    Zn36     Zn       0.37758    0.53351    0.70388    1.000
    O141     O        0.40817    0.50606    0.72674    1.000
    N351     N        0.34918    0.50189    0.68106    1.000
    N352     N        0.40260    0.56070    0.67317    1.000
    N353     N        0.31164    0.47630    0.65382    1.000
    C281     C        0.45477    0.49873    0.75900    1.000
    O142     O        0.42434    0.54767    0.75635    1.000
    C282     C        0.42656    0.51950    0.74759    1.000
    C283     C        0.33275    0.50086    0.65396    1.000
    C284     C        0.42797    0.58100    0.67400    1.000
    N354     N        0.33800    0.47700    0.69910    1.000
    N355     N        0.44870    0.58310    0.69870    1.000
    H211     H        0.46640    0.59370    0.69640    1.000
    H212     H        0.44430    0.57390    0.71680    1.000
    N356     N        0.33450    0.52360    0.63010    1.000
    H213     H        0.34700    0.54000    0.63230    1.000
    H214     H        0.32300    0.52150    0.61290    1.000
    N357     N        0.43327    0.59430    0.64616    1.000
    N358     N        0.40920    0.58290    0.62670    1.000
    N359     N        0.31700    0.46150    0.68260    1.000
    C285     C        0.47221    0.50857    0.78604    1.000
    H215     H        0.46600    0.52680    0.79770    1.000
    O143     O        0.49220    0.59640    0.60260    1.000
    N360     N        0.39080    0.56490    0.64300    1.000
    C286     C        0.54350    0.55670    0.58960    1.000
    H216     H        0.53070    0.55250    0.60760    1.000
    O144     O        0.50310    0.62790    0.56050    1.000
    C287     C        0.53700    0.58220    0.56990    1.000
    C288     C        0.50850    0.60390    0.57750    1.000
    Zn37     Zn       0.37242    0.03351    0.54612    1.000
    O145     O        0.34183    0.00606    0.52326    1.000
    N361     N        0.40082    0.00189    0.56894    1.000
    N362     N        0.34740    0.06070    0.57683    1.000
    N363     N        0.43836    0.97630    0.59618    1.000
    C289     C        0.29523    0.99873    0.49100    1.000
    O146     O        0.32566    0.04767    0.49365    1.000
    C290     C        0.32344    0.01950    0.50241    1.000
    C291     C        0.41725    0.00086    0.59604    1.000
    C292     C        0.32203    0.08100    0.57600    1.000
    N364     N        0.41200    0.97700    0.55090    1.000
    N365     N        0.30130    0.08310    0.55130    1.000
    H217     H        0.28360    0.09370    0.55360    1.000
    H218     H        0.30570    0.07390    0.53320    1.000
    N366     N        0.41550    0.02360    0.61990    1.000
    H219     H        0.40300    0.04000    0.61770    1.000
    H220     H        0.42700    0.02150    0.63710    1.000
    N367     N        0.31673    0.09430    0.60384    1.000
    N368     N        0.34080    0.08290    0.62330    1.000
    N369     N        0.43300    0.96150    0.56740    1.000
    C293     C        0.27779    0.00857    0.46396    1.000
    H221     H        0.28400    0.02680    0.45230    1.000
    O147     O        0.25780    0.09640    0.64740    1.000
    N370     N        0.35920    0.06490    0.60700    1.000
    C294     C        0.20650    0.05670    0.66040    1.000
    H222     H        0.21930    0.05250    0.64240    1.000
    O148     O        0.24690    0.12790    0.68950    1.000
    C295     C        0.21300    0.08220    0.68010    1.000
    C296     C        0.24150    0.10390    0.67250    1.000
    Zn38     Zn       0.37242    0.53351    0.04612    1.000
    O149     O        0.34183    0.50606    0.02326    1.000
    N371     N        0.40082    0.50189    0.06894    1.000
    N372     N        0.34740    0.56070    0.07683    1.000
    N373     N        0.43836    0.47630    0.09618    1.000
    C297     C        0.29523    0.49873    0.99100    1.000
    O150     O        0.32566    0.54767    0.99365    1.000
    C298     C        0.32344    0.51950    0.00241    1.000
    C299     C        0.41725    0.50086    0.09604    1.000
    C300     C        0.32203    0.58100    0.07600    1.000
    N374     N        0.41200    0.47700    0.05090    1.000
    N375     N        0.30130    0.58310    0.05130    1.000
    H223     H        0.28360    0.59370    0.05360    1.000
    H224     H        0.30570    0.57390    0.03320    1.000
    N376     N        0.41550    0.52360    0.11990    1.000
    H225     H        0.40300    0.54000    0.11770    1.000
    H226     H        0.42700    0.52150    0.13710    1.000
    N377     N        0.31673    0.59430    0.10384    1.000
    N378     N        0.34080    0.58290    0.12330    1.000
    N379     N        0.43300    0.46150    0.06740    1.000
    C301     C        0.27779    0.50857    0.96396    1.000
    H227     H        0.28400    0.52680    0.95230    1.000
    O151     O        0.25780    0.59640    0.14740    1.000
    N380     N        0.35920    0.56490    0.10700    1.000
    C302     C        0.20650    0.55670    0.16040    1.000
    H228     H        0.21930    0.55250    0.14240    1.000
    O152     O        0.24690    0.62790    0.18950    1.000
    C303     C        0.21300    0.58220    0.18010    1.000
    C304     C        0.24150    0.60390    0.17250    1.000
    Zn39     Zn       0.87242    0.03351    0.04612    1.000
    O153     O        0.84183    0.00606    0.02326    1.000
    N381     N        0.90082    0.00189    0.06894    1.000
    N382     N        0.84740    0.06070    0.07683    1.000
    N383     N        0.93836    0.97630    0.09618    1.000
    C305     C        0.79523    0.99873    0.99100    1.000
    O154     O        0.82566    0.04767    0.99365    1.000
    C306     C        0.82344    0.01950    0.00241    1.000
    C307     C        0.91725    0.00086    0.09604    1.000
    C308     C        0.82203    0.08100    0.07600    1.000
    N384     N        0.91200    0.97700    0.05090    1.000
    N385     N        0.80130    0.08310    0.05130    1.000
    H229     H        0.78360    0.09370    0.05360    1.000
    H230     H        0.80570    0.07390    0.03320    1.000
    N386     N        0.91550    0.02360    0.11990    1.000
    H231     H        0.90300    0.04000    0.11770    1.000
    H232     H        0.92700    0.02150    0.13710    1.000
    N387     N        0.81673    0.09430    0.10384    1.000
    N388     N        0.84080    0.08290    0.12330    1.000
    N389     N        0.93300    0.96150    0.06740    1.000
    C309     C        0.77779    0.00857    0.96396    1.000
    H233     H        0.78400    0.02680    0.95230    1.000
    O155     O        0.75780    0.09640    0.14740    1.000
    N390     N        0.85920    0.06490    0.10700    1.000
    C310     C        0.70650    0.05670    0.16040    1.000
    H234     H        0.71930    0.05250    0.14240    1.000
    O156     O        0.74690    0.12790    0.18950    1.000
    C311     C        0.71300    0.08220    0.18010    1.000
    C312     C        0.74150    0.10390    0.17250    1.000
    Zn40     Zn       0.87242    0.53351    0.54612    1.000
    O157     O        0.84183    0.50606    0.52326    1.000
    N391     N        0.90082    0.50189    0.56894    1.000
    N392     N        0.84740    0.56070    0.57683    1.000
    N393     N        0.93836    0.47630    0.59618    1.000
    C313     C        0.79523    0.49873    0.49100    1.000
    O158     O        0.82566    0.54767    0.49365    1.000
    C314     C        0.82344    0.51950    0.50241    1.000
    C315     C        0.91725    0.50086    0.59604    1.000
    C316     C        0.82203    0.58100    0.57600    1.000
    N394     N        0.91200    0.47700    0.55090    1.000
    N395     N        0.80130    0.58310    0.55130    1.000
    H235     H        0.78360    0.59370    0.55360    1.000
    H236     H        0.80570    0.57390    0.53320    1.000
    N396     N        0.91550    0.52360    0.61990    1.000
    H237     H        0.90300    0.54000    0.61770    1.000
    H238     H        0.92700    0.52150    0.63710    1.000
    N397     N        0.81673    0.59430    0.60384    1.000
    N398     N        0.84080    0.58290    0.62330    1.000
    N399     N        0.93300    0.46150    0.56740    1.000
    C317     C        0.77779    0.50857    0.46396    1.000
    H239     H        0.78400    0.52680    0.45230    1.000
    O159     O        0.75780    0.59640    0.64740    1.000
    N400     N        0.85920    0.56490    0.60700    1.000
    C318     C        0.70650    0.55670    0.66040    1.000
    H240     H        0.71930    0.55250    0.64240    1.000
    O160     O        0.74690    0.62790    0.68950    1.000
    C319     C        0.71300    0.58220    0.68010    1.000
    C320     C        0.74150    0.60390    0.67250    1.000
    Zn41     Zn       0.87758    0.21649    0.54612    1.000
    O161     O        0.90817    0.24394    0.52326    1.000
    N401     N        0.84918    0.24811    0.56894    1.000
    N402     N        0.90260    0.18930    0.57683    1.000
    N403     N        0.81164    0.27370    0.59618    1.000
    C321     C        0.95477    0.25127    0.49100    1.000
    O162     O        0.92434    0.20233    0.49365    1.000
    C322     C        0.92656    0.23050    0.50241    1.000
    C323     C        0.83275    0.24914    0.59604    1.000
    C324     C        0.92797    0.16900    0.57600    1.000
    N404     N        0.83800    0.27300    0.55090    1.000
    N405     N        0.94870    0.16690    0.55130    1.000
    H241     H        0.96640    0.15630    0.55360    1.000
    H242     H        0.94430    0.17610    0.53320    1.000
    N406     N        0.83450    0.22640    0.61990    1.000
    H243     H        0.84700    0.21000    0.61770    1.000
    H244     H        0.82300    0.22850    0.63710    1.000
    N407     N        0.93327    0.15570    0.60384    1.000
    N408     N        0.90920    0.16710    0.62330    1.000
    N409     N        0.81700    0.28850    0.56740    1.000
    C325     C        0.97221    0.24143    0.46396    1.000
    H245     H        0.96600    0.22320    0.45230    1.000
    O163     O        0.99220    0.15360    0.64740    1.000
    N410     N        0.89080    0.18510    0.60700    1.000
    C326     C        0.04350    0.19330    0.66040    1.000
    H246     H        0.03070    0.19750    0.64240    1.000
    O164     O        0.00310    0.12210    0.68950    1.000
    C327     C        0.03700    0.16780    0.68010    1.000
    C328     C        0.00850    0.14610    0.67250    1.000
    Zn42     Zn       0.87758    0.71649    0.04612    1.000
    O165     O        0.90817    0.74394    0.02326    1.000
    N411     N        0.84918    0.74811    0.06894    1.000
    N412     N        0.90260    0.68930    0.07683    1.000
    N413     N        0.81164    0.77370    0.09618    1.000
    C329     C        0.95477    0.75127    0.99100    1.000
    O166     O        0.92434    0.70233    0.99365    1.000
    C330     C        0.92656    0.73050    0.00241    1.000
    C331     C        0.83275    0.74914    0.09604    1.000
    C332     C        0.92797    0.66900    0.07600    1.000
    N414     N        0.83800    0.77300    0.05090    1.000
    N415     N        0.94870    0.66690    0.05130    1.000
    H247     H        0.96640    0.65630    0.05360    1.000
    H248     H        0.94430    0.67610    0.03320    1.000
    N416     N        0.83450    0.72640    0.11990    1.000
    H249     H        0.84700    0.71000    0.11770    1.000
    H250     H        0.82300    0.72850    0.13710    1.000
    N417     N        0.93327    0.65570    0.10384    1.000
    N418     N        0.90920    0.66710    0.12330    1.000
    N419     N        0.81700    0.78850    0.06740    1.000
    C333     C        0.97221    0.74143    0.96396    1.000
    H251     H        0.96600    0.72320    0.95230    1.000
    O167     O        0.99220    0.65360    0.14740    1.000
    N420     N        0.89080    0.68510    0.10700    1.000
    C334     C        0.04350    0.69330    0.16040    1.000
    H252     H        0.03070    0.69750    0.14240    1.000
    O168     O        0.00310    0.62210    0.18950    1.000
    C335     C        0.03700    0.66780    0.18010    1.000
    C336     C        0.00850    0.64610    0.17250    1.000
    Zn43     Zn       0.37758    0.21649    0.04612    1.000
    O169     O        0.40817    0.24394    0.02326    1.000
    N421     N        0.34918    0.24811    0.06894    1.000
    N422     N        0.40260    0.18930    0.07683    1.000
    N423     N        0.31164    0.27370    0.09618    1.000
    C337     C        0.45477    0.25127    0.99100    1.000
    O170     O        0.42434    0.20233    0.99365    1.000
    C338     C        0.42656    0.23050    0.00241    1.000
    C339     C        0.33275    0.24914    0.09604    1.000
    C340     C        0.42797    0.16900    0.07600    1.000
    N424     N        0.33800    0.27300    0.05090    1.000
    N425     N        0.44870    0.16690    0.05130    1.000
    H253     H        0.46640    0.15630    0.05360    1.000
    H254     H        0.44430    0.17610    0.03320    1.000
    N426     N        0.33450    0.22640    0.11990    1.000
    H255     H        0.34700    0.21000    0.11770    1.000
    H256     H        0.32300    0.22850    0.13710    1.000
    N427     N        0.43327    0.15570    0.10384    1.000
    N428     N        0.40920    0.16710    0.12330    1.000
    N429     N        0.31700    0.28850    0.06740    1.000
    C341     C        0.47221    0.24143    0.96396    1.000
    H257     H        0.46600    0.22320    0.95230    1.000
    O171     O        0.49220    0.15360    0.14740    1.000
    N430     N        0.39080    0.18510    0.10700    1.000
    C342     C        0.54350    0.19330    0.16040    1.000
    H258     H        0.53070    0.19750    0.14240    1.000
    O172     O        0.50310    0.12210    0.18950    1.000
    C343     C        0.53700    0.16780    0.18010    1.000
    C344     C        0.50850    0.14610    0.17250    1.000
    Zn44     Zn       0.37758    0.71649    0.54612    1.000
    O173     O        0.40817    0.74394    0.52326    1.000
    N431     N        0.34918    0.74811    0.56894    1.000
    N432     N        0.40260    0.68930    0.57683    1.000
    N433     N        0.31164    0.77370    0.59618    1.000
    C345     C        0.45477    0.75127    0.49100    1.000
    O174     O        0.42434    0.70233    0.49365    1.000
    C346     C        0.42656    0.73050    0.50241    1.000
    C347     C        0.33275    0.74914    0.59604    1.000
    C348     C        0.42797    0.66900    0.57600    1.000
    N434     N        0.33800    0.77300    0.55090    1.000
    N435     N        0.44870    0.66690    0.55130    1.000
    H259     H        0.46640    0.65630    0.55360    1.000
    H260     H        0.44430    0.67610    0.53320    1.000
    N436     N        0.33450    0.72640    0.61990    1.000
    H261     H        0.34700    0.71000    0.61770    1.000
    H262     H        0.32300    0.72850    0.63710    1.000
    N437     N        0.43327    0.65570    0.60384    1.000
    N438     N        0.40920    0.66710    0.62330    1.000
    N439     N        0.31700    0.78850    0.56740    1.000
    C349     C        0.47221    0.74143    0.46396    1.000
    H263     H        0.46600    0.72320    0.45230    1.000
    O175     O        0.49220    0.65360    0.64740    1.000
    N440     N        0.39080    0.68510    0.60700    1.000
    C350     C        0.54350    0.69330    0.66040    1.000
    H264     H        0.53070    0.69750    0.64240    1.000
    O176     O        0.50310    0.62210    0.68950    1.000
    C351     C        0.53700    0.66780    0.68010    1.000
    C352     C        0.50850    0.64610    0.67250    1.000
    Zn45     Zn       0.37242    0.21649    0.70388    1.000
    O177     O        0.34183    0.24394    0.72674    1.000
    N441     N        0.40082    0.24811    0.68106    1.000
    N442     N        0.34740    0.18930    0.67317    1.000
    N443     N        0.43836    0.27370    0.65382    1.000
    C353     C        0.29523    0.25127    0.75900    1.000
    O178     O        0.32566    0.20233    0.75635    1.000
    C354     C        0.32344    0.23050    0.74759    1.000
    C355     C        0.41725    0.24914    0.65396    1.000
    C356     C        0.32203    0.16900    0.67400    1.000
    N444     N        0.41200    0.27300    0.69910    1.000
    N445     N        0.30130    0.16690    0.69870    1.000
    H265     H        0.28360    0.15630    0.69640    1.000
    H266     H        0.30570    0.17610    0.71680    1.000
    N446     N        0.41550    0.22640    0.63010    1.000
    H267     H        0.40300    0.21000    0.63230    1.000
    H268     H        0.42700    0.22850    0.61290    1.000
    N447     N        0.31673    0.15570    0.64616    1.000
    N448     N        0.34080    0.16710    0.62670    1.000
    N449     N        0.43300    0.28850    0.68260    1.000
    C357     C        0.27779    0.24143    0.78604    1.000
    H269     H        0.28400    0.22320    0.79770    1.000
    O179     O        0.25780    0.15360    0.60260    1.000
    N450     N        0.35920    0.18510    0.64300    1.000
    C358     C        0.20650    0.19330    0.58960    1.000
    H270     H        0.21930    0.19750    0.60760    1.000
    O180     O        0.24690    0.12210    0.56050    1.000
    C359     C        0.21300    0.16780    0.56990    1.000
    C360     C        0.24150    0.14610    0.57750    1.000
    Zn46     Zn       0.37242    0.71649    0.20388    1.000
    O181     O        0.34183    0.74394    0.22674    1.000
    N451     N        0.40082    0.74811    0.18106    1.000
    N452     N        0.34740    0.68930    0.17317    1.000
    N453     N        0.43836    0.77370    0.15382    1.000
    C361     C        0.29523    0.75127    0.25900    1.000
    O182     O        0.32566    0.70233    0.25635    1.000
    C362     C        0.32344    0.73050    0.24759    1.000
    C363     C        0.41725    0.74914    0.15396    1.000
    C364     C        0.32203    0.66900    0.17400    1.000
    N454     N        0.41200    0.77300    0.19910    1.000
    N455     N        0.30130    0.66690    0.19870    1.000
    H271     H        0.28360    0.65630    0.19640    1.000
    H272     H        0.30570    0.67610    0.21680    1.000
    N456     N        0.41550    0.72640    0.13010    1.000
    H273     H        0.40300    0.71000    0.13230    1.000
    H274     H        0.42700    0.72850    0.11290    1.000
    N457     N        0.31673    0.65570    0.14616    1.000
    N458     N        0.34080    0.66710    0.12670    1.000
    N459     N        0.43300    0.78850    0.18260    1.000
    C365     C        0.27779    0.74143    0.28604    1.000
    H275     H        0.28400    0.72320    0.29770    1.000
    O183     O        0.25780    0.65360    0.10260    1.000
    N460     N        0.35920    0.68510    0.14300    1.000
    C366     C        0.20650    0.69330    0.08960    1.000
    H276     H        0.21930    0.69750    0.10760    1.000
    O184     O        0.24690    0.62210    0.06050    1.000
    C367     C        0.21300    0.66780    0.06990    1.000
    C368     C        0.24150    0.64610    0.07750    1.000
    Zn47     Zn       0.87242    0.21649    0.20388    1.000
    O185     O        0.84183    0.24394    0.22674    1.000
    N461     N        0.90082    0.24811    0.18106    1.000
    N462     N        0.84740    0.18930    0.17317    1.000
    N463     N        0.93836    0.27370    0.15382    1.000
    C369     C        0.79523    0.25127    0.25900    1.000
    O186     O        0.82566    0.20233    0.25635    1.000
    C370     C        0.82344    0.23050    0.24759    1.000
    C371     C        0.91725    0.24914    0.15396    1.000
    C372     C        0.82203    0.16900    0.17400    1.000
    N464     N        0.91200    0.27300    0.19910    1.000
    N465     N        0.80130    0.16690    0.19870    1.000
    H277     H        0.78360    0.15630    0.19640    1.000
    H278     H        0.80570    0.17610    0.21680    1.000
    N466     N        0.91550    0.22640    0.13010    1.000
    H279     H        0.90300    0.21000    0.13230    1.000
    H280     H        0.92700    0.22850    0.11290    1.000
    N467     N        0.81673    0.15570    0.14616    1.000
    N468     N        0.84080    0.16710    0.12670    1.000
    N469     N        0.93300    0.28850    0.18260    1.000
    C373     C        0.77779    0.24143    0.28604    1.000
    H281     H        0.78400    0.22320    0.29770    1.000
    O187     O        0.75780    0.15360    0.10260    1.000
    N470     N        0.85920    0.18510    0.14300    1.000
    C374     C        0.70650    0.19330    0.08960    1.000
    H282     H        0.71930    0.19750    0.10760    1.000
    O188     O        0.74690    0.12210    0.06050    1.000
    C375     C        0.71300    0.16780    0.06990    1.000
    C376     C        0.74150    0.14610    0.07750    1.000
    Zn48     Zn       0.87242    0.71649    0.70388    1.000
    O189     O        0.84183    0.74394    0.72674    1.000
    N471     N        0.90082    0.74811    0.68106    1.000
    N472     N        0.84740    0.68930    0.67317    1.000
    N473     N        0.93836    0.77370    0.65382    1.000
    C377     C        0.79523    0.75127    0.75900    1.000
    O190     O        0.82566    0.70233    0.75635    1.000
    C378     C        0.82344    0.73050    0.74759    1.000
    C379     C        0.91725    0.74914    0.65396    1.000
    C380     C        0.82203    0.66900    0.67400    1.000
    N474     N        0.91200    0.77300    0.69910    1.000
    N475     N        0.80130    0.66690    0.69870    1.000
    H283     H        0.78360    0.65630    0.69640    1.000
    H284     H        0.80570    0.67610    0.71680    1.000
    N476     N        0.91550    0.72640    0.63010    1.000
    H285     H        0.90300    0.71000    0.63230    1.000
    H286     H        0.92700    0.72850    0.61290    1.000
    N477     N        0.81673    0.65570    0.64616    1.000
    N478     N        0.84080    0.66710    0.62670    1.000
    N479     N        0.93300    0.78850    0.68260    1.000
    C381     C        0.77779    0.74143    0.78604    1.000
    H287     H        0.78400    0.72320    0.79770    1.000
    O191     O        0.75780    0.65360    0.60260    1.000
    N480     N        0.85920    0.68510    0.64300    1.000
    C382     C        0.70650    0.69330    0.58960    1.000
    H288     H        0.71930    0.69750    0.60760    1.000
    O192     O        0.74690    0.62210    0.56050    1.000
    C383     C        0.71300    0.66780    0.56990    1.000
    C384     C        0.74150    0.64610    0.57750    1.000
    Zn49     Zn       0.29612    0.12242    0.96649    1.000
    O193     O        0.27326    0.09183    0.99394    1.000
    N481     N        0.31894    0.15082    0.99811    1.000
    N482     N        0.32683    0.09740    0.93930    1.000
    N483     N        0.34618    0.18836    0.02370    1.000
    C385     C        0.24100    0.04523    0.00127    1.000
    O194     O        0.24365    0.07566    0.95233    1.000
    C386     C        0.25241    0.07344    0.98050    1.000
    C387     C        0.34604    0.16725    0.99914    1.000
    C388     C        0.32600    0.07203    0.91900    1.000
    N484     N        0.30090    0.16200    0.02300    1.000
    N485     N        0.30130    0.05130    0.91690    1.000
    H289     H        0.30360    0.03360    0.90630    1.000
    H290     H        0.28320    0.05570    0.92610    1.000
    N486     N        0.36990    0.16550    0.97640    1.000
    H291     H        0.36770    0.15300    0.96000    1.000
    H292     H        0.38710    0.17700    0.97850    1.000
    N487     N        0.35384    0.06673    0.90570    1.000
    N488     N        0.37330    0.09080    0.91710    1.000
    N489     N        0.31740    0.18300    0.03850    1.000
    C389     C        0.21396    0.02779    0.99143    1.000
    H293     H        0.20230    0.03400    0.97320    1.000
    O195     O        0.39740    0.00780    0.90360    1.000
    N490     N        0.35700    0.10920    0.93510    1.000
    C390     C        0.41040    0.95650    0.94330    1.000
    H294     H        0.39240    0.96930    0.94750    1.000
    O196     O        0.43950    0.99690    0.87210    1.000
    C391     C        0.43010    0.96300    0.91780    1.000
    C392     C        0.42250    0.99150    0.89610    1.000
    Zn50     Zn       0.29612    0.62242    0.46649    1.000
    O197     O        0.27326    0.59183    0.49394    1.000
    N491     N        0.31894    0.65082    0.49811    1.000
    N492     N        0.32683    0.59740    0.43930    1.000
    N493     N        0.34618    0.68836    0.52370    1.000
    C393     C        0.24100    0.54523    0.50127    1.000
    O198     O        0.24365    0.57566    0.45233    1.000
    C394     C        0.25241    0.57344    0.48050    1.000
    C395     C        0.34604    0.66725    0.49914    1.000
    C396     C        0.32600    0.57203    0.41900    1.000
    N494     N        0.30090    0.66200    0.52300    1.000
    N495     N        0.30130    0.55130    0.41690    1.000
    H295     H        0.30360    0.53360    0.40630    1.000
    H296     H        0.28320    0.55570    0.42610    1.000
    N496     N        0.36990    0.66550    0.47640    1.000
    H297     H        0.36770    0.65300    0.46000    1.000
    H298     H        0.38710    0.67700    0.47850    1.000
    N497     N        0.35384    0.56673    0.40570    1.000
    N498     N        0.37330    0.59080    0.41710    1.000
    N499     N        0.31740    0.68300    0.53850    1.000
    C397     C        0.21396    0.52779    0.49143    1.000
    H299     H        0.20230    0.53400    0.47320    1.000
    O199     O        0.39740    0.50780    0.40360    1.000
    N500     N        0.35700    0.60920    0.43510    1.000
    C398     C        0.41040    0.45650    0.44330    1.000
    H300     H        0.39240    0.46930    0.44750    1.000
    O200     O        0.43950    0.49690    0.37210    1.000
    C399     C        0.43010    0.46300    0.41780    1.000
    C400     C        0.42250    0.49150    0.39610    1.000
    Zn51     Zn       0.79612    0.12242    0.46649    1.000
    O201     O        0.77326    0.09183    0.49394    1.000
    N501     N        0.81894    0.15082    0.49811    1.000
    N502     N        0.82683    0.09740    0.43930    1.000
    N503     N        0.84618    0.18836    0.52370    1.000
    C401     C        0.74100    0.04523    0.50127    1.000
    O202     O        0.74365    0.07566    0.45233    1.000
    C402     C        0.75241    0.07344    0.48050    1.000
    C403     C        0.84604    0.16725    0.49914    1.000
    C404     C        0.82600    0.07203    0.41900    1.000
    N504     N        0.80090    0.16200    0.52300    1.000
    N505     N        0.80130    0.05130    0.41690    1.000
    H301     H        0.80360    0.03360    0.40630    1.000
    H302     H        0.78320    0.05570    0.42610    1.000
    N506     N        0.86990    0.16550    0.47640    1.000
    H303     H        0.86770    0.15300    0.46000    1.000
    H304     H        0.88710    0.17700    0.47850    1.000
    N507     N        0.85384    0.06673    0.40570    1.000
    N508     N        0.87330    0.09080    0.41710    1.000
    N509     N        0.81740    0.18300    0.53850    1.000
    C405     C        0.71396    0.02779    0.49143    1.000
    H305     H        0.70230    0.03400    0.47320    1.000
    O203     O        0.89740    0.00780    0.40360    1.000
    N510     N        0.85700    0.10920    0.43510    1.000
    C406     C        0.91040    0.95650    0.44330    1.000
    H306     H        0.89240    0.96930    0.44750    1.000
    O204     O        0.93950    0.99690    0.37210    1.000
    C407     C        0.93010    0.96300    0.41780    1.000
    C408     C        0.92250    0.99150    0.39610    1.000
    Zn52     Zn       0.79612    0.62242    0.96649    1.000
    O205     O        0.77326    0.59183    0.99394    1.000
    N511     N        0.81894    0.65082    0.99811    1.000
    N512     N        0.82683    0.59740    0.93930    1.000
    N513     N        0.84618    0.68836    0.02370    1.000
    C409     C        0.74100    0.54523    0.00127    1.000
    O206     O        0.74365    0.57566    0.95233    1.000
    C410     C        0.75241    0.57344    0.98050    1.000
    C411     C        0.84604    0.66725    0.99914    1.000
    C412     C        0.82600    0.57203    0.91900    1.000
    N514     N        0.80090    0.66200    0.02300    1.000
    N515     N        0.80130    0.55130    0.91690    1.000
    H307     H        0.80360    0.53360    0.90630    1.000
    H308     H        0.78320    0.55570    0.92610    1.000
    N516     N        0.86990    0.66550    0.97640    1.000
    H309     H        0.86770    0.65300    0.96000    1.000
    H310     H        0.88710    0.67700    0.97850    1.000
    N517     N        0.85384    0.56673    0.90570    1.000
    N518     N        0.87330    0.59080    0.91710    1.000
    N519     N        0.81740    0.68300    0.03850    1.000
    C413     C        0.71396    0.52779    0.99143    1.000
    H311     H        0.70230    0.53400    0.97320    1.000
    O207     O        0.89740    0.50780    0.90360    1.000
    N520     N        0.85700    0.60920    0.93510    1.000
    C414     C        0.91040    0.45650    0.94330    1.000
    H312     H        0.89240    0.46930    0.94750    1.000
    O208     O        0.93950    0.49690    0.87210    1.000
    C415     C        0.93010    0.46300    0.91780    1.000
    C416     C        0.92250    0.49150    0.89610    1.000
    Zn53     Zn       0.45388    0.62758    0.96649    1.000
    O209     O        0.47674    0.65817    0.99394    1.000
    N521     N        0.43106    0.59918    0.99811    1.000
    N522     N        0.42317    0.65260    0.93930    1.000
    N523     N        0.40382    0.56164    0.02370    1.000
    C417     C        0.50900    0.70477    0.00127    1.000
    O210     O        0.50635    0.67434    0.95233    1.000
    C418     C        0.49759    0.67656    0.98050    1.000
    C419     C        0.40396    0.58275    0.99914    1.000
    C420     C        0.42400    0.67797    0.91900    1.000
    N524     N        0.44910    0.58800    0.02300    1.000
    N525     N        0.44870    0.69870    0.91690    1.000
    H313     H        0.44640    0.71640    0.90630    1.000
    H314     H        0.46680    0.69430    0.92610    1.000
    N526     N        0.38010    0.58450    0.97640    1.000
    H315     H        0.38230    0.59700    0.96000    1.000
    H316     H        0.36290    0.57300    0.97850    1.000
    N527     N        0.39616    0.68327    0.90570    1.000
    N528     N        0.37670    0.65920    0.91710    1.000
    N529     N        0.43260    0.56700    0.03850    1.000
    C421     C        0.53604    0.72221    0.99143    1.000
    H317     H        0.54770    0.71600    0.97320    1.000
    O211     O        0.35260    0.74220    0.90360    1.000
    N530     N        0.39300    0.64080    0.93510    1.000
    C422     C        0.33960    0.79350    0.94330    1.000
    H318     H        0.35760    0.78070    0.94750    1.000
    O212     O        0.31050    0.75310    0.87210    1.000
    C423     C        0.31990    0.78700    0.91780    1.000
    C424     C        0.32750    0.75850    0.89610    1.000
    Zn54     Zn       0.45388    0.12758    0.46649    1.000
    O213     O        0.47674    0.15817    0.49394    1.000
    N531     N        0.43106    0.09918    0.49811    1.000
    N532     N        0.42317    0.15260    0.43930    1.000
    N533     N        0.40382    0.06164    0.52370    1.000
    C425     C        0.50900    0.20477    0.50127    1.000
    O214     O        0.50635    0.17434    0.45233    1.000
    C426     C        0.49759    0.17656    0.48050    1.000
    C427     C        0.40396    0.08275    0.49914    1.000
    C428     C        0.42400    0.17797    0.41900    1.000
    N534     N        0.44910    0.08800    0.52300    1.000
    N535     N        0.44870    0.19870    0.41690    1.000
    H319     H        0.44640    0.21640    0.40630    1.000
    H320     H        0.46680    0.19430    0.42610    1.000
    N536     N        0.38010    0.08450    0.47640    1.000
    H321     H        0.38230    0.09700    0.46000    1.000
    H322     H        0.36290    0.07300    0.47850    1.000
    N537     N        0.39616    0.18327    0.40570    1.000
    N538     N        0.37670    0.15920    0.41710    1.000
    N539     N        0.43260    0.06700    0.53850    1.000
    C429     C        0.53604    0.22221    0.49143    1.000
    H323     H        0.54770    0.21600    0.47320    1.000
    O215     O        0.35260    0.24220    0.40360    1.000
    N540     N        0.39300    0.14080    0.43510    1.000
    C430     C        0.33960    0.29350    0.44330    1.000
    H324     H        0.35760    0.28070    0.44750    1.000
    O216     O        0.31050    0.25310    0.37210    1.000
    C431     C        0.31990    0.28700    0.41780    1.000
    C432     C        0.32750    0.25850    0.39610    1.000
    Zn55     Zn       0.95388    0.62758    0.46649    1.000
    O217     O        0.97674    0.65817    0.49394    1.000
    N541     N        0.93106    0.59918    0.49811    1.000
    N542     N        0.92317    0.65260    0.43930    1.000
    N543     N        0.90382    0.56164    0.52370    1.000
    C433     C        0.00900    0.70477    0.50127    1.000
    O218     O        0.00635    0.67434    0.45233    1.000
    C434     C        0.99759    0.67656    0.48050    1.000
    C435     C        0.90396    0.58275    0.49914    1.000
    C436     C        0.92400    0.67797    0.41900    1.000
    N544     N        0.94910    0.58800    0.52300    1.000
    N545     N        0.94870    0.69870    0.41690    1.000
    H325     H        0.94640    0.71640    0.40630    1.000
    H326     H        0.96680    0.69430    0.42610    1.000
    N546     N        0.88010    0.58450    0.47640    1.000
    H327     H        0.88230    0.59700    0.46000    1.000
    H328     H        0.86290    0.57300    0.47850    1.000
    N547     N        0.89616    0.68327    0.40570    1.000
    N548     N        0.87670    0.65920    0.41710    1.000
    N549     N        0.93260    0.56700    0.53850    1.000
    C437     C        0.03604    0.72221    0.49143    1.000
    H329     H        0.04770    0.71600    0.47320    1.000
    O219     O        0.85260    0.74220    0.40360    1.000
    N550     N        0.89300    0.64080    0.43510    1.000
    C438     C        0.83960    0.79350    0.44330    1.000
    H330     H        0.85760    0.78070    0.44750    1.000
    O220     O        0.81050    0.75310    0.37210    1.000
    C439     C        0.81990    0.78700    0.41780    1.000
    C440     C        0.82750    0.75850    0.39610    1.000
    Zn56     Zn       0.95388    0.12758    0.96649    1.000
    O221     O        0.97674    0.15817    0.99394    1.000
    N551     N        0.93106    0.09918    0.99811    1.000
    N552     N        0.92317    0.15260    0.93930    1.000
    N553     N        0.90382    0.06164    0.02370    1.000
    C441     C        0.00900    0.20477    0.00127    1.000
    O222     O        0.00635    0.17434    0.95233    1.000
    C442     C        0.99759    0.17656    0.98050    1.000
    C443     C        0.90396    0.08275    0.99914    1.000
    C444     C        0.92400    0.17797    0.91900    1.000
    N554     N        0.94910    0.08800    0.02300    1.000
    N555     N        0.94870    0.19870    0.91690    1.000
    H331     H        0.94640    0.21640    0.90630    1.000
    H332     H        0.96680    0.19430    0.92610    1.000
    N556     N        0.88010    0.08450    0.97640    1.000
    H333     H        0.88230    0.09700    0.96000    1.000
    H334     H        0.86290    0.07300    0.97850    1.000
    N557     N        0.89616    0.18327    0.90570    1.000
    N558     N        0.87670    0.15920    0.91710    1.000
    N559     N        0.93260    0.06700    0.03850    1.000
    C445     C        0.03604    0.22221    0.99143    1.000
    H335     H        0.04770    0.21600    0.97320    1.000
    O223     O        0.85260    0.24220    0.90360    1.000
    N560     N        0.89300    0.14080    0.93510    1.000
    C446     C        0.83960    0.29350    0.94330    1.000
    H336     H        0.85760    0.28070    0.94750    1.000
    O224     O        0.81050    0.25310    0.87210    1.000
    C447     C        0.81990    0.28700    0.91780    1.000
    C448     C        0.82750    0.25850    0.89610    1.000
    Zn57     Zn       0.45388    0.12242    0.78351    1.000
    O225     O        0.47674    0.09183    0.75606    1.000
    N561     N        0.43106    0.15082    0.75189    1.000
    N562     N        0.42317    0.09740    0.81070    1.000
    N563     N        0.40382    0.18836    0.72630    1.000
    C449     C        0.50900    0.04523    0.74873    1.000
    O226     O        0.50635    0.07566    0.79767    1.000
    C450     C        0.49759    0.07344    0.76950    1.000
    C451     C        0.40396    0.16725    0.75086    1.000
    C452     C        0.42400    0.07203    0.83100    1.000
    N564     N        0.44910    0.16200    0.72700    1.000
    N565     N        0.44870    0.05130    0.83310    1.000
    H337     H        0.44640    0.03360    0.84370    1.000
    H338     H        0.46680    0.05570    0.82390    1.000
    N566     N        0.38010    0.16550    0.77360    1.000
    H339     H        0.38230    0.15300    0.79000    1.000
    H340     H        0.36290    0.17700    0.77150    1.000
    N567     N        0.39616    0.06673    0.84430    1.000
    N568     N        0.37670    0.09080    0.83290    1.000
    N569     N        0.43260    0.18300    0.71150    1.000
    C453     C        0.53604    0.02779    0.75857    1.000
    H341     H        0.54770    0.03400    0.77680    1.000
    O227     O        0.35260    0.00780    0.84640    1.000
    N570     N        0.39300    0.10920    0.81490    1.000
    C454     C        0.33960    0.95650    0.80670    1.000
    H342     H        0.35760    0.96930    0.80250    1.000
    O228     O        0.31050    0.99690    0.87790    1.000
    C455     C        0.31990    0.96300    0.83220    1.000
    C456     C        0.32750    0.99150    0.85390    1.000
    Zn58     Zn       0.45388    0.62242    0.28351    1.000
    O229     O        0.47674    0.59183    0.25606    1.000
    N571     N        0.43106    0.65082    0.25189    1.000
    N572     N        0.42317    0.59740    0.31070    1.000
    N573     N        0.40382    0.68836    0.22630    1.000
    C457     C        0.50900    0.54523    0.24873    1.000
    O230     O        0.50635    0.57566    0.29767    1.000
    C458     C        0.49759    0.57344    0.26950    1.000
    C459     C        0.40396    0.66725    0.25086    1.000
    C460     C        0.42400    0.57203    0.33100    1.000
    N574     N        0.44910    0.66200    0.22700    1.000
    N575     N        0.44870    0.55130    0.33310    1.000
    H343     H        0.44640    0.53360    0.34370    1.000
    H344     H        0.46680    0.55570    0.32390    1.000
    N576     N        0.38010    0.66550    0.27360    1.000
    H345     H        0.38230    0.65300    0.29000    1.000
    H346     H        0.36290    0.67700    0.27150    1.000
    N577     N        0.39616    0.56673    0.34430    1.000
    N578     N        0.37670    0.59080    0.33290    1.000
    N579     N        0.43260    0.68300    0.21150    1.000
    C461     C        0.53604    0.52779    0.25857    1.000
    H347     H        0.54770    0.53400    0.27680    1.000
    O231     O        0.35260    0.50780    0.34640    1.000
    N580     N        0.39300    0.60920    0.31490    1.000
    C462     C        0.33960    0.45650    0.30670    1.000
    H348     H        0.35760    0.46930    0.30250    1.000
    O232     O        0.31050    0.49690    0.37790    1.000
    C463     C        0.31990    0.46300    0.33220    1.000
    C464     C        0.32750    0.49150    0.35390    1.000
    Zn59     Zn       0.95388    0.12242    0.28351    1.000
    O233     O        0.97674    0.09183    0.25606    1.000
    N581     N        0.93106    0.15082    0.25189    1.000
    N582     N        0.92317    0.09740    0.31070    1.000
    N583     N        0.90382    0.18836    0.22630    1.000
    C465     C        0.00900    0.04523    0.24873    1.000
    O234     O        0.00635    0.07566    0.29767    1.000
    C466     C        0.99759    0.07344    0.26950    1.000
    C467     C        0.90396    0.16725    0.25086    1.000
    C468     C        0.92400    0.07203    0.33100    1.000
    N584     N        0.94910    0.16200    0.22700    1.000
    N585     N        0.94870    0.05130    0.33310    1.000
    H349     H        0.94640    0.03360    0.34370    1.000
    H350     H        0.96680    0.05570    0.32390    1.000
    N586     N        0.88010    0.16550    0.27360    1.000
    H351     H        0.88230    0.15300    0.29000    1.000
    H352     H        0.86290    0.17700    0.27150    1.000
    N587     N        0.89616    0.06673    0.34430    1.000
    N588     N        0.87670    0.09080    0.33290    1.000
    N589     N        0.93260    0.18300    0.21150    1.000
    C469     C        0.03604    0.02779    0.25857    1.000
    H353     H        0.04770    0.03400    0.27680    1.000
    O235     O        0.85260    0.00780    0.34640    1.000
    N590     N        0.89300    0.10920    0.31490    1.000
    C470     C        0.83960    0.95650    0.30670    1.000
    H354     H        0.85760    0.96930    0.30250    1.000
    O236     O        0.81050    0.99690    0.37790    1.000
    C471     C        0.81990    0.96300    0.33220    1.000
    C472     C        0.82750    0.99150    0.35390    1.000
    Zn60     Zn       0.95388    0.62242    0.78351    1.000
    O237     O        0.97674    0.59183    0.75606    1.000
    N591     N        0.93106    0.65082    0.75189    1.000
    N592     N        0.92317    0.59740    0.81070    1.000
    N593     N        0.90382    0.68836    0.72630    1.000
    C473     C        0.00900    0.54523    0.74873    1.000
    O238     O        0.00635    0.57566    0.79767    1.000
    C474     C        0.99759    0.57344    0.76950    1.000
    C475     C        0.90396    0.66725    0.75086    1.000
    C476     C        0.92400    0.57203    0.83100    1.000
    N594     N        0.94910    0.66200    0.72700    1.000
    N595     N        0.94870    0.55130    0.83310    1.000
    H355     H        0.94640    0.53360    0.84370    1.000
    H356     H        0.96680    0.55570    0.82390    1.000
    N596     N        0.88010    0.66550    0.77360    1.000
    H357     H        0.88230    0.65300    0.79000    1.000
    H358     H        0.86290    0.67700    0.77150    1.000
    N597     N        0.89616    0.56673    0.84430    1.000
    N598     N        0.87670    0.59080    0.83290    1.000
    N599     N        0.93260    0.68300    0.71150    1.000
    C477     C        0.03604    0.52779    0.75857    1.000
    H359     H        0.04770    0.53400    0.77680    1.000
    O239     O        0.85260    0.50780    0.84640    1.000
    N600     N        0.89300    0.60920    0.81490    1.000
    C478     C        0.83960    0.45650    0.80670    1.000
    H360     H        0.85760    0.46930    0.80250    1.000
    O240     O        0.81050    0.49690    0.87790    1.000
    C479     C        0.81990    0.46300    0.83220    1.000
    C480     C        0.82750    0.49150    0.85390    1.000
    Zn61     Zn       0.29612    0.62758    0.78351    1.000
    O241     O        0.27326    0.65817    0.75606    1.000
    N601     N        0.31894    0.59918    0.75189    1.000
    N602     N        0.32683    0.65260    0.81070    1.000
    N603     N        0.34618    0.56164    0.72630    1.000
    C481     C        0.24100    0.70477    0.74873    1.000
    O242     O        0.24365    0.67434    0.79767    1.000
    C482     C        0.25241    0.67656    0.76950    1.000
    C483     C        0.34604    0.58275    0.75086    1.000
    C484     C        0.32600    0.67797    0.83100    1.000
    N604     N        0.30090    0.58800    0.72700    1.000
    N605     N        0.30130    0.69870    0.83310    1.000
    H361     H        0.30360    0.71640    0.84370    1.000
    H362     H        0.28320    0.69430    0.82390    1.000
    N606     N        0.36990    0.58450    0.77360    1.000
    H363     H        0.36770    0.59700    0.79000    1.000
    H364     H        0.38710    0.57300    0.77150    1.000
    N607     N        0.35384    0.68327    0.84430    1.000
    N608     N        0.37330    0.65920    0.83290    1.000
    N609     N        0.31740    0.56700    0.71150    1.000
    C485     C        0.21396    0.72221    0.75857    1.000
    H365     H        0.20230    0.71600    0.77680    1.000
    O243     O        0.39740    0.74220    0.84640    1.000
    N610     N        0.35700    0.64080    0.81490    1.000
    C486     C        0.41040    0.79350    0.80670    1.000
    H366     H        0.39240    0.78070    0.80250    1.000
    O244     O        0.43950    0.75310    0.87790    1.000
    C487     C        0.43010    0.78700    0.83220    1.000
    C488     C        0.42250    0.75850    0.85390    1.000
    Zn62     Zn       0.29612    0.12758    0.28351    1.000
    O245     O        0.27326    0.15817    0.25606    1.000
    N611     N        0.31894    0.09918    0.25189    1.000
    N612     N        0.32683    0.15260    0.31070    1.000
    N613     N        0.34618    0.06164    0.22630    1.000
    C489     C        0.24100    0.20477    0.24873    1.000
    O246     O        0.24365    0.17434    0.29767    1.000
    C490     C        0.25241    0.17656    0.26950    1.000
    C491     C        0.34604    0.08275    0.25086    1.000
    C492     C        0.32600    0.17797    0.33100    1.000
    N614     N        0.30090    0.08800    0.22700    1.000
    N615     N        0.30130    0.19870    0.33310    1.000
    H367     H        0.30360    0.21640    0.34370    1.000
    H368     H        0.28320    0.19430    0.32390    1.000
    N616     N        0.36990    0.08450    0.27360    1.000
    H369     H        0.36770    0.09700    0.29000    1.000
    H370     H        0.38710    0.07300    0.27150    1.000
    N617     N        0.35384    0.18327    0.34430    1.000
    N618     N        0.37330    0.15920    0.33290    1.000
    N619     N        0.31740    0.06700    0.21150    1.000
    C493     C        0.21396    0.22221    0.25857    1.000
    H371     H        0.20230    0.21600    0.27680    1.000
    O247     O        0.39740    0.24220    0.34640    1.000
    N620     N        0.35700    0.14080    0.31490    1.000
    C494     C        0.41040    0.29350    0.30670    1.000
    H372     H        0.39240    0.28070    0.30250    1.000
    O248     O        0.43950    0.25310    0.37790    1.000
    C495     C        0.43010    0.28700    0.33220    1.000
    C496     C        0.42250    0.25850    0.35390    1.000
    Zn63     Zn       0.79612    0.62758    0.28351    1.000
    O249     O        0.77326    0.65817    0.25606    1.000
    N621     N        0.81894    0.59918    0.25189    1.000
    N622     N        0.82683    0.65260    0.31070    1.000
    N623     N        0.84618    0.56164    0.22630    1.000
    C497     C        0.74100    0.70477    0.24873    1.000
    O250     O        0.74365    0.67434    0.29767    1.000
    C498     C        0.75241    0.67656    0.26950    1.000
    C499     C        0.84604    0.58275    0.25086    1.000
    C500     C        0.82600    0.67797    0.33100    1.000
    N624     N        0.80090    0.58800    0.22700    1.000
    N625     N        0.80130    0.69870    0.33310    1.000
    H373     H        0.80360    0.71640    0.34370    1.000
    H374     H        0.78320    0.69430    0.32390    1.000
    N626     N        0.86990    0.58450    0.27360    1.000
    H375     H        0.86770    0.59700    0.29000    1.000
    H376     H        0.88710    0.57300    0.27150    1.000
    N627     N        0.85384    0.68327    0.34430    1.000
    N628     N        0.87330    0.65920    0.33290    1.000
    N629     N        0.81740    0.56700    0.21150    1.000
    C501     C        0.71396    0.72221    0.25857    1.000
    H377     H        0.70230    0.71600    0.27680    1.000
    O251     O        0.89740    0.74220    0.34640    1.000
    N630     N        0.85700    0.64080    0.31490    1.000
    C502     C        0.91040    0.79350    0.30670    1.000
    H378     H        0.89240    0.78070    0.30250    1.000
    O252     O        0.93950    0.75310    0.37790    1.000
    C503     C        0.93010    0.78700    0.33220    1.000
    C504     C        0.92250    0.75850    0.35390    1.000
    Zn64     Zn       0.79612    0.12758    0.78351    1.000
    O253     O        0.77326    0.15817    0.75606    1.000
    N631     N        0.81894    0.09918    0.75189    1.000
    N632     N        0.82683    0.15260    0.81070    1.000
    N633     N        0.84618    0.06164    0.72630    1.000
    C505     C        0.74100    0.20477    0.74873    1.000
    O254     O        0.74365    0.17434    0.79767    1.000
    C506     C        0.75241    0.17656    0.76950    1.000
    C507     C        0.84604    0.08275    0.75086    1.000
    C508     C        0.82600    0.17797    0.83100    1.000
    N634     N        0.80090    0.08800    0.72700    1.000
    N635     N        0.80130    0.19870    0.83310    1.000
    H379     H        0.80360    0.21640    0.84370    1.000
    H380     H        0.78320    0.19430    0.82390    1.000
    N636     N        0.86990    0.08450    0.77360    1.000
    H381     H        0.86770    0.09700    0.79000    1.000
    H382     H        0.88710    0.07300    0.77150    1.000
    N637     N        0.85384    0.18327    0.84430    1.000
    N638     N        0.87330    0.15920    0.83290    1.000
    N639     N        0.81740    0.06700    0.71150    1.000
    C509     C        0.71396    0.22221    0.75857    1.000
    H383     H        0.70230    0.21600    0.77680    1.000
    O255     O        0.89740    0.24220    0.84640    1.000
    N640     N        0.85700    0.14080    0.81490    1.000
    C510     C        0.91040    0.29350    0.80670    1.000
    H384     H        0.89240    0.28070    0.80250    1.000
    O256     O        0.93950    0.25310    0.87790    1.000
    C511     C        0.93010    0.28700    0.83220    1.000
    C512     C        0.92250    0.25850    0.85390    1.000
    Zn65     Zn       0.96649    0.29612    0.12242    1.000
    O257     O        0.99394    0.27326    0.09183    1.000
    N641     N        0.99811    0.31894    0.15082    1.000
    N642     N        0.93930    0.32683    0.09740    1.000
    N643     N        0.02370    0.34618    0.18836    1.000
    C513     C        0.00127    0.24100    0.04523    1.000
    O258     O        0.95233    0.24365    0.07566    1.000
    C514     C        0.98050    0.25241    0.07344    1.000
    C515     C        0.99914    0.34604    0.16725    1.000
    C516     C        0.91900    0.32600    0.07203    1.000
    N644     N        0.02300    0.30090    0.16200    1.000
    N645     N        0.91690    0.30130    0.05130    1.000
    H385     H        0.90630    0.30360    0.03360    1.000
    H386     H        0.92610    0.28320    0.05570    1.000
    N646     N        0.97640    0.36990    0.16550    1.000
    H387     H        0.96000    0.36770    0.15300    1.000
    H388     H        0.97850    0.38710    0.17700    1.000
    N647     N        0.90570    0.35384    0.06673    1.000
    N648     N        0.91710    0.37330    0.09080    1.000
    N649     N        0.03850    0.31740    0.18300    1.000
    C517     C        0.99143    0.21396    0.02779    1.000
    H389     H        0.97320    0.20230    0.03400    1.000
    O259     O        0.90360    0.39740    0.00780    1.000
    N650     N        0.93510    0.35700    0.10920    1.000
    C518     C        0.94330    0.41040    0.95650    1.000
    H390     H        0.94750    0.39240    0.96930    1.000
    O260     O        0.87210    0.43950    0.99690    1.000
    C519     C        0.91780    0.43010    0.96300    1.000
    C520     C        0.89610    0.42250    0.99150    1.000
    Zn66     Zn       0.96649    0.79612    0.62242    1.000
    O261     O        0.99394    0.77326    0.59183    1.000
    N651     N        0.99811    0.81894    0.65082    1.000
    N652     N        0.93930    0.82683    0.59740    1.000
    N653     N        0.02370    0.84618    0.68836    1.000
    C521     C        0.00127    0.74100    0.54523    1.000
    O262     O        0.95233    0.74365    0.57566    1.000
    C522     C        0.98050    0.75241    0.57344    1.000
    C523     C        0.99914    0.84604    0.66725    1.000
    C524     C        0.91900    0.82600    0.57203    1.000
    N654     N        0.02300    0.80090    0.66200    1.000
    N655     N        0.91690    0.80130    0.55130    1.000
    H391     H        0.90630    0.80360    0.53360    1.000
    H392     H        0.92610    0.78320    0.55570    1.000
    N656     N        0.97640    0.86990    0.66550    1.000
    H393     H        0.96000    0.86770    0.65300    1.000
    H394     H        0.97850    0.88710    0.67700    1.000
    N657     N        0.90570    0.85384    0.56673    1.000
    N658     N        0.91710    0.87330    0.59080    1.000
    N659     N        0.03850    0.81740    0.68300    1.000
    C525     C        0.99143    0.71396    0.52779    1.000
    H395     H        0.97320    0.70230    0.53400    1.000
    O263     O        0.90360    0.89740    0.50780    1.000
    N660     N        0.93510    0.85700    0.60920    1.000
    C526     C        0.94330    0.91040    0.45650    1.000
    H396     H        0.94750    0.89240    0.46930    1.000
    O264     O        0.87210    0.93950    0.49690    1.000
    C527     C        0.91780    0.93010    0.46300    1.000
    C528     C        0.89610    0.92250    0.49150    1.000
    Zn67     Zn       0.46649    0.29612    0.62242    1.000
    O265     O        0.49394    0.27326    0.59183    1.000
    N661     N        0.49811    0.31894    0.65082    1.000
    N662     N        0.43930    0.32683    0.59740    1.000
    N663     N        0.52370    0.34618    0.68836    1.000
    C529     C        0.50127    0.24100    0.54523    1.000
    O266     O        0.45233    0.24365    0.57566    1.000
    C530     C        0.48050    0.25241    0.57344    1.000
    C531     C        0.49914    0.34604    0.66725    1.000
    C532     C        0.41900    0.32600    0.57203    1.000
    N664     N        0.52300    0.30090    0.66200    1.000
    N665     N        0.41690    0.30130    0.55130    1.000
    H397     H        0.40630    0.30360    0.53360    1.000
    H398     H        0.42610    0.28320    0.55570    1.000
    N666     N        0.47640    0.36990    0.66550    1.000
    H399     H        0.46000    0.36770    0.65300    1.000
    H400     H        0.47850    0.38710    0.67700    1.000
    N667     N        0.40570    0.35384    0.56673    1.000
    N668     N        0.41710    0.37330    0.59080    1.000
    N669     N        0.53850    0.31740    0.68300    1.000
    C533     C        0.49143    0.21396    0.52779    1.000
    H401     H        0.47320    0.20230    0.53400    1.000
    O267     O        0.40360    0.39740    0.50780    1.000
    N670     N        0.43510    0.35700    0.60920    1.000
    C534     C        0.44330    0.41040    0.45650    1.000
    H402     H        0.44750    0.39240    0.46930    1.000
    O268     O        0.37210    0.43950    0.49690    1.000
    C535     C        0.41780    0.43010    0.46300    1.000
    C536     C        0.39610    0.42250    0.49150    1.000
    Zn68     Zn       0.46649    0.79612    0.12242    1.000
    O269     O        0.49394    0.77326    0.09183    1.000
    N671     N        0.49811    0.81894    0.15082    1.000
    N672     N        0.43930    0.82683    0.09740    1.000
    N673     N        0.52370    0.84618    0.18836    1.000
    C537     C        0.50127    0.74100    0.04523    1.000
    O270     O        0.45233    0.74365    0.07566    1.000
    C538     C        0.48050    0.75241    0.07344    1.000
    C539     C        0.49914    0.84604    0.16725    1.000
    C540     C        0.41900    0.82600    0.07203    1.000
    N674     N        0.52300    0.80090    0.16200    1.000
    N675     N        0.41690    0.80130    0.05130    1.000
    H403     H        0.40630    0.80360    0.03360    1.000
    H404     H        0.42610    0.78320    0.05570    1.000
    N676     N        0.47640    0.86990    0.16550    1.000
    H405     H        0.46000    0.86770    0.15300    1.000
    H406     H        0.47850    0.88710    0.17700    1.000
    N677     N        0.40570    0.85384    0.06673    1.000
    N678     N        0.41710    0.87330    0.09080    1.000
    N679     N        0.53850    0.81740    0.18300    1.000
    C541     C        0.49143    0.71396    0.02779    1.000
    H407     H        0.47320    0.70230    0.03400    1.000
    O271     O        0.40360    0.89740    0.00780    1.000
    N680     N        0.43510    0.85700    0.10920    1.000
    C542     C        0.44330    0.91040    0.95650    1.000
    H408     H        0.44750    0.89240    0.96930    1.000
    O272     O        0.37210    0.93950    0.99690    1.000
    C543     C        0.41780    0.93010    0.96300    1.000
    C544     C        0.39610    0.92250    0.99150    1.000
    Zn69     Zn       0.96649    0.45388    0.62758    1.000
    O273     O        0.99394    0.47674    0.65817    1.000
    N681     N        0.99811    0.43106    0.59918    1.000
    N682     N        0.93930    0.42317    0.65260    1.000
    N683     N        0.02370    0.40382    0.56164    1.000
    C545     C        0.00127    0.50900    0.70477    1.000
    O274     O        0.95233    0.50635    0.67434    1.000
    C546     C        0.98050    0.49759    0.67656    1.000
    C547     C        0.99914    0.40396    0.58275    1.000
    C548     C        0.91900    0.42400    0.67797    1.000
    N684     N        0.02300    0.44910    0.58800    1.000
    N685     N        0.91690    0.44870    0.69870    1.000
    H409     H        0.90630    0.44640    0.71640    1.000
    H410     H        0.92610    0.46680    0.69430    1.000
    N686     N        0.97640    0.38010    0.58450    1.000
    H411     H        0.96000    0.38230    0.59700    1.000
    H412     H        0.97850    0.36290    0.57300    1.000
    N687     N        0.90570    0.39616    0.68327    1.000
    N688     N        0.91710    0.37670    0.65920    1.000
    N689     N        0.03850    0.43260    0.56700    1.000
    C549     C        0.99143    0.53604    0.72221    1.000
    H413     H        0.97320    0.54770    0.71600    1.000
    O275     O        0.90360    0.35260    0.74220    1.000
    N690     N        0.93510    0.39300    0.64080    1.000
    C550     C        0.94330    0.33960    0.79350    1.000
    H414     H        0.94750    0.35760    0.78070    1.000
    O276     O        0.87210    0.31050    0.75310    1.000
    C551     C        0.91780    0.31990    0.78700    1.000
    C552     C        0.89610    0.32750    0.75850    1.000
    Zn70     Zn       0.96649    0.95388    0.12758    1.000
    O277     O        0.99394    0.97674    0.15817    1.000
    N691     N        0.99811    0.93106    0.09918    1.000
    N692     N        0.93930    0.92317    0.15260    1.000
    N693     N        0.02370    0.90382    0.06164    1.000
    C553     C        0.00127    0.00900    0.20477    1.000
    O278     O        0.95233    0.00635    0.17434    1.000
    C554     C        0.98050    0.99759    0.17656    1.000
    C555     C        0.99914    0.90396    0.08275    1.000
    C556     C        0.91900    0.92400    0.17797    1.000
    N694     N        0.02300    0.94910    0.08800    1.000
    N695     N        0.91690    0.94870    0.19870    1.000
    H415     H        0.90630    0.94640    0.21640    1.000
    H416     H        0.92610    0.96680    0.19430    1.000
    N696     N        0.97640    0.88010    0.08450    1.000
    H417     H        0.96000    0.88230    0.09700    1.000
    H418     H        0.97850    0.86290    0.07300    1.000
    N697     N        0.90570    0.89616    0.18327    1.000
    N698     N        0.91710    0.87670    0.15920    1.000
    N699     N        0.03850    0.93260    0.06700    1.000
    C557     C        0.99143    0.03604    0.22221    1.000
    H419     H        0.97320    0.04770    0.21600    1.000
    O279     O        0.90360    0.85260    0.24220    1.000
    N700     N        0.93510    0.89300    0.14080    1.000
    C558     C        0.94330    0.83960    0.29350    1.000
    H420     H        0.94750    0.85760    0.28070    1.000
    O280     O        0.87210    0.81050    0.25310    1.000
    C559     C        0.91780    0.81990    0.28700    1.000
    C560     C        0.89610    0.82750    0.25850    1.000
    Zn71     Zn       0.46649    0.45388    0.12758    1.000
    O281     O        0.49394    0.47674    0.15817    1.000
    N701     N        0.49811    0.43106    0.09918    1.000
    N702     N        0.43930    0.42317    0.15260    1.000
    N703     N        0.52370    0.40382    0.06164    1.000
    C561     C        0.50127    0.50900    0.20477    1.000
    O282     O        0.45233    0.50635    0.17434    1.000
    C562     C        0.48050    0.49759    0.17656    1.000
    C563     C        0.49914    0.40396    0.08275    1.000
    C564     C        0.41900    0.42400    0.17797    1.000
    N704     N        0.52300    0.44910    0.08800    1.000
    N705     N        0.41690    0.44870    0.19870    1.000
    H421     H        0.40630    0.44640    0.21640    1.000
    H422     H        0.42610    0.46680    0.19430    1.000
    N706     N        0.47640    0.38010    0.08450    1.000
    H423     H        0.46000    0.38230    0.09700    1.000
    H424     H        0.47850    0.36290    0.07300    1.000
    N707     N        0.40570    0.39616    0.18327    1.000
    N708     N        0.41710    0.37670    0.15920    1.000
    N709     N        0.53850    0.43260    0.06700    1.000
    C565     C        0.49143    0.53604    0.22221    1.000
    H425     H        0.47320    0.54770    0.21600    1.000
    O283     O        0.40360    0.35260    0.24220    1.000
    N710     N        0.43510    0.39300    0.14080    1.000
    C566     C        0.44330    0.33960    0.29350    1.000
    H426     H        0.44750    0.35760    0.28070    1.000
    O284     O        0.37210    0.31050    0.25310    1.000
    C567     C        0.41780    0.31990    0.28700    1.000
    C568     C        0.39610    0.32750    0.25850    1.000
    Zn72     Zn       0.46649    0.95388    0.62758    1.000
    O285     O        0.49394    0.97674    0.65817    1.000
    N711     N        0.49811    0.93106    0.59918    1.000
    N712     N        0.43930    0.92317    0.65260    1.000
    N713     N        0.52370    0.90382    0.56164    1.000
    C569     C        0.50127    0.00900    0.70477    1.000
    O286     O        0.45233    0.00635    0.67434    1.000
    C570     C        0.48050    0.99759    0.67656    1.000
    C571     C        0.49914    0.90396    0.58275    1.000
    C572     C        0.41900    0.92400    0.67797    1.000
    N714     N        0.52300    0.94910    0.58800    1.000
    N715     N        0.41690    0.94870    0.69870    1.000
    H427     H        0.40630    0.94640    0.71640    1.000
    H428     H        0.42610    0.96680    0.69430    1.000
    N716     N        0.47640    0.88010    0.58450    1.000
    H429     H        0.46000    0.88230    0.59700    1.000
    H430     H        0.47850    0.86290    0.57300    1.000
    N717     N        0.40570    0.89616    0.68327    1.000
    N718     N        0.41710    0.87670    0.65920    1.000
    N719     N        0.53850    0.93260    0.56700    1.000
    C573     C        0.49143    0.03604    0.72221    1.000
    H431     H        0.47320    0.04770    0.71600    1.000
    O287     O        0.40360    0.85260    0.74220    1.000
    N720     N        0.43510    0.89300    0.64080    1.000
    C574     C        0.44330    0.83960    0.79350    1.000
    H432     H        0.44750    0.85760    0.78070    1.000
    O288     O        0.37210    0.81050    0.75310    1.000
    C575     C        0.41780    0.81990    0.78700    1.000
    C576     C        0.39610    0.82750    0.75850    1.000
    Zn73     Zn       0.78351    0.45388    0.12242    1.000
    O289     O        0.75606    0.47674    0.09183    1.000
    N721     N        0.75189    0.43106    0.15082    1.000
    N722     N        0.81070    0.42317    0.09740    1.000
    N723     N        0.72630    0.40382    0.18836    1.000
    C577     C        0.74873    0.50900    0.04523    1.000
    O290     O        0.79767    0.50635    0.07566    1.000
    C578     C        0.76950    0.49759    0.07344    1.000
    C579     C        0.75086    0.40396    0.16725    1.000
    C580     C        0.83100    0.42400    0.07203    1.000
    N724     N        0.72700    0.44910    0.16200    1.000
    N725     N        0.83310    0.44870    0.05130    1.000
    H433     H        0.84370    0.44640    0.03360    1.000
    H434     H        0.82390    0.46680    0.05570    1.000
    N726     N        0.77360    0.38010    0.16550    1.000
    H435     H        0.79000    0.38230    0.15300    1.000
    H436     H        0.77150    0.36290    0.17700    1.000
    N727     N        0.84430    0.39616    0.06673    1.000
    N728     N        0.83290    0.37670    0.09080    1.000
    N729     N        0.71150    0.43260    0.18300    1.000
    C581     C        0.75857    0.53604    0.02779    1.000
    H437     H        0.77680    0.54770    0.03400    1.000
    O291     O        0.84640    0.35260    0.00780    1.000
    N730     N        0.81490    0.39300    0.10920    1.000
    C582     C        0.80670    0.33960    0.95650    1.000
    H438     H        0.80250    0.35760    0.96930    1.000
    O292     O        0.87790    0.31050    0.99690    1.000
    C583     C        0.83220    0.31990    0.96300    1.000
    C584     C        0.85390    0.32750    0.99150    1.000
    Zn74     Zn       0.78351    0.95388    0.62242    1.000
    O293     O        0.75606    0.97674    0.59183    1.000
    N731     N        0.75189    0.93106    0.65082    1.000
    N732     N        0.81070    0.92317    0.59740    1.000
    N733     N        0.72630    0.90382    0.68836    1.000
    C585     C        0.74873    0.00900    0.54523    1.000
    O294     O        0.79767    0.00635    0.57566    1.000
    C586     C        0.76950    0.99759    0.57344    1.000
    C587     C        0.75086    0.90396    0.66725    1.000
    C588     C        0.83100    0.92400    0.57203    1.000
    N734     N        0.72700    0.94910    0.66200    1.000
    N735     N        0.83310    0.94870    0.55130    1.000
    H439     H        0.84370    0.94640    0.53360    1.000
    H440     H        0.82390    0.96680    0.55570    1.000
    N736     N        0.77360    0.88010    0.66550    1.000
    H441     H        0.79000    0.88230    0.65300    1.000
    H442     H        0.77150    0.86290    0.67700    1.000
    N737     N        0.84430    0.89616    0.56673    1.000
    N738     N        0.83290    0.87670    0.59080    1.000
    N739     N        0.71150    0.93260    0.68300    1.000
    C589     C        0.75857    0.03604    0.52779    1.000
    H443     H        0.77680    0.04770    0.53400    1.000
    O295     O        0.84640    0.85260    0.50780    1.000
    N740     N        0.81490    0.89300    0.60920    1.000
    C590     C        0.80670    0.83960    0.45650    1.000
    H444     H        0.80250    0.85760    0.46930    1.000
    O296     O        0.87790    0.81050    0.49690    1.000
    C591     C        0.83220    0.81990    0.46300    1.000
    C592     C        0.85390    0.82750    0.49150    1.000
    Zn75     Zn       0.28351    0.45388    0.62242    1.000
    O297     O        0.25606    0.47674    0.59183    1.000
    N741     N        0.25189    0.43106    0.65082    1.000
    N742     N        0.31070    0.42317    0.59740    1.000
    N743     N        0.22630    0.40382    0.68836    1.000
    C593     C        0.24873    0.50900    0.54523    1.000
    O298     O        0.29767    0.50635    0.57566    1.000
    C594     C        0.26950    0.49759    0.57344    1.000
    C595     C        0.25086    0.40396    0.66725    1.000
    C596     C        0.33100    0.42400    0.57203    1.000
    N744     N        0.22700    0.44910    0.66200    1.000
    N745     N        0.33310    0.44870    0.55130    1.000
    H445     H        0.34370    0.44640    0.53360    1.000
    H446     H        0.32390    0.46680    0.55570    1.000
    N746     N        0.27360    0.38010    0.66550    1.000
    H447     H        0.29000    0.38230    0.65300    1.000
    H448     H        0.27150    0.36290    0.67700    1.000
    N747     N        0.34430    0.39616    0.56673    1.000
    N748     N        0.33290    0.37670    0.59080    1.000
    N749     N        0.21150    0.43260    0.68300    1.000
    C597     C        0.25857    0.53604    0.52779    1.000
    H449     H        0.27680    0.54770    0.53400    1.000
    O299     O        0.34640    0.35260    0.50780    1.000
    N750     N        0.31490    0.39300    0.60920    1.000
    C598     C        0.30670    0.33960    0.45650    1.000
    H450     H        0.30250    0.35760    0.46930    1.000
    O300     O        0.37790    0.31050    0.49690    1.000
    C599     C        0.33220    0.31990    0.46300    1.000
    C600     C        0.35390    0.32750    0.49150    1.000
    Zn76     Zn       0.28351    0.95388    0.12242    1.000
    O301     O        0.25606    0.97674    0.09183    1.000
    N751     N        0.25189    0.93106    0.15082    1.000
    N752     N        0.31070    0.92317    0.09740    1.000
    N753     N        0.22630    0.90382    0.18836    1.000
    C601     C        0.24873    0.00900    0.04523    1.000
    O302     O        0.29767    0.00635    0.07566    1.000
    C602     C        0.26950    0.99759    0.07344    1.000
    C603     C        0.25086    0.90396    0.16725    1.000
    C604     C        0.33100    0.92400    0.07203    1.000
    N754     N        0.22700    0.94910    0.16200    1.000
    N755     N        0.33310    0.94870    0.05130    1.000
    H451     H        0.34370    0.94640    0.03360    1.000
    H452     H        0.32390    0.96680    0.05570    1.000
    N756     N        0.27360    0.88010    0.16550    1.000
    H453     H        0.29000    0.88230    0.15300    1.000
    H454     H        0.27150    0.86290    0.17700    1.000
    N757     N        0.34430    0.89616    0.06673    1.000
    N758     N        0.33290    0.87670    0.09080    1.000
    N759     N        0.21150    0.93260    0.18300    1.000
    C605     C        0.25857    0.03604    0.02779    1.000
    H455     H        0.27680    0.04770    0.03400    1.000
    O303     O        0.34640    0.85260    0.00780    1.000
    N760     N        0.31490    0.89300    0.10920    1.000
    C606     C        0.30670    0.83960    0.95650    1.000
    H456     H        0.30250    0.85760    0.96930    1.000
    O304     O        0.37790    0.81050    0.99690    1.000
    C607     C        0.33220    0.81990    0.96300    1.000
    C608     C        0.35390    0.82750    0.99150    1.000
    Zn77     Zn       0.78351    0.29612    0.62758    1.000
    O305     O        0.75606    0.27326    0.65817    1.000
    N761     N        0.75189    0.31894    0.59918    1.000
    N762     N        0.81070    0.32683    0.65260    1.000
    N763     N        0.72630    0.34618    0.56164    1.000
    C609     C        0.74873    0.24100    0.70477    1.000
    O306     O        0.79767    0.24365    0.67434    1.000
    C610     C        0.76950    0.25241    0.67656    1.000
    C611     C        0.75086    0.34604    0.58275    1.000
    C612     C        0.83100    0.32600    0.67797    1.000
    N764     N        0.72700    0.30090    0.58800    1.000
    N765     N        0.83310    0.30130    0.69870    1.000
    H457     H        0.84370    0.30360    0.71640    1.000
    H458     H        0.82390    0.28320    0.69430    1.000
    N766     N        0.77360    0.36990    0.58450    1.000
    H459     H        0.79000    0.36770    0.59700    1.000
    H460     H        0.77150    0.38710    0.57300    1.000
    N767     N        0.84430    0.35384    0.68327    1.000
    N768     N        0.83290    0.37330    0.65920    1.000
    N769     N        0.71150    0.31740    0.56700    1.000
    C613     C        0.75857    0.21396    0.72221    1.000
    H461     H        0.77680    0.20230    0.71600    1.000
    O307     O        0.84640    0.39740    0.74220    1.000
    N770     N        0.81490    0.35700    0.64080    1.000
    C614     C        0.80670    0.41040    0.79350    1.000
    H462     H        0.80250    0.39240    0.78070    1.000
    O308     O        0.87790    0.43950    0.75310    1.000
    C615     C        0.83220    0.43010    0.78700    1.000
    C616     C        0.85390    0.42250    0.75850    1.000
    Zn78     Zn       0.78351    0.79612    0.12758    1.000
    O309     O        0.75606    0.77326    0.15817    1.000
    N771     N        0.75189    0.81894    0.09918    1.000
    N772     N        0.81070    0.82683    0.15260    1.000
    N773     N        0.72630    0.84618    0.06164    1.000
    C617     C        0.74873    0.74100    0.20477    1.000
    O310     O        0.79767    0.74365    0.17434    1.000
    C618     C        0.76950    0.75241    0.17656    1.000
    C619     C        0.75086    0.84604    0.08275    1.000
    C620     C        0.83100    0.82600    0.17797    1.000
    N774     N        0.72700    0.80090    0.08800    1.000
    N775     N        0.83310    0.80130    0.19870    1.000
    H463     H        0.84370    0.80360    0.21640    1.000
    H464     H        0.82390    0.78320    0.19430    1.000
    N776     N        0.77360    0.86990    0.08450    1.000
    H465     H        0.79000    0.86770    0.09700    1.000
    H466     H        0.77150    0.88710    0.07300    1.000
    N777     N        0.84430    0.85384    0.18327    1.000
    N778     N        0.83290    0.87330    0.15920    1.000
    N779     N        0.71150    0.81740    0.06700    1.000
    C621     C        0.75857    0.71396    0.22221    1.000
    H467     H        0.77680    0.70230    0.21600    1.000
    O311     O        0.84640    0.89740    0.24220    1.000
    N780     N        0.81490    0.85700    0.14080    1.000
    C622     C        0.80670    0.91040    0.29350    1.000
    H468     H        0.80250    0.89240    0.28070    1.000
    O312     O        0.87790    0.93950    0.25310    1.000
    C623     C        0.83220    0.93010    0.28700    1.000
    C624     C        0.85390    0.92250    0.25850    1.000
    Zn79     Zn       0.28351    0.29612    0.12758    1.000
    O313     O        0.25606    0.27326    0.15817    1.000
    N781     N        0.25189    0.31894    0.09918    1.000
    N782     N        0.31070    0.32683    0.15260    1.000
    N783     N        0.22630    0.34618    0.06164    1.000
    C625     C        0.24873    0.24100    0.20477    1.000
    O314     O        0.29767    0.24365    0.17434    1.000
    C626     C        0.26950    0.25241    0.17656    1.000
    C627     C        0.25086    0.34604    0.08275    1.000
    C628     C        0.33100    0.32600    0.17797    1.000
    N784     N        0.22700    0.30090    0.08800    1.000
    N785     N        0.33310    0.30130    0.19870    1.000
    H469     H        0.34370    0.30360    0.21640    1.000
    H470     H        0.32390    0.28320    0.19430    1.000
    N786     N        0.27360    0.36990    0.08450    1.000
    H471     H        0.29000    0.36770    0.09700    1.000
    H472     H        0.27150    0.38710    0.07300    1.000
    N787     N        0.34430    0.35384    0.18327    1.000
    N788     N        0.33290    0.37330    0.15920    1.000
    N789     N        0.21150    0.31740    0.06700    1.000
    C629     C        0.25857    0.21396    0.22221    1.000
    H473     H        0.27680    0.20230    0.21600    1.000
    O315     O        0.34640    0.39740    0.24220    1.000
    N790     N        0.31490    0.35700    0.14080    1.000
    C630     C        0.30670    0.41040    0.29350    1.000
    H474     H        0.30250    0.39240    0.28070    1.000
    O316     O        0.37790    0.43950    0.25310    1.000
    C631     C        0.33220    0.43010    0.28700    1.000
    C632     C        0.35390    0.42250    0.25850    1.000
    Zn80     Zn       0.28351    0.79612    0.62758    1.000
    O317     O        0.25606    0.77326    0.65817    1.000
    N791     N        0.25189    0.81894    0.59918    1.000
    N792     N        0.31070    0.82683    0.65260    1.000
    N793     N        0.22630    0.84618    0.56164    1.000
    C633     C        0.24873    0.74100    0.70477    1.000
    O318     O        0.29767    0.74365    0.67434    1.000
    C634     C        0.26950    0.75241    0.67656    1.000
    C635     C        0.25086    0.84604    0.58275    1.000
    C636     C        0.33100    0.82600    0.67797    1.000
    N794     N        0.22700    0.80090    0.58800    1.000
    N795     N        0.33310    0.80130    0.69870    1.000
    H475     H        0.34370    0.80360    0.71640    1.000
    H476     H        0.32390    0.78320    0.69430    1.000
    N796     N        0.27360    0.86990    0.58450    1.000
    H477     H        0.29000    0.86770    0.59700    1.000
    H478     H        0.27150    0.88710    0.57300    1.000
    N797     N        0.34430    0.85384    0.68327    1.000
    N798     N        0.33290    0.87330    0.65920    1.000
    N799     N        0.21150    0.81740    0.56700    1.000
    C637     C        0.25857    0.71396    0.72221    1.000
    H479     H        0.27680    0.70230    0.71600    1.000
    O319     O        0.34640    0.89740    0.74220    1.000
    N800     N        0.31490    0.85700    0.64080    1.000
    C638     C        0.30670    0.91040    0.79350    1.000
    H480     H        0.30250    0.89240    0.78070    1.000
    O320     O        0.37790    0.93950    0.75310    1.000
    C639     C        0.33220    0.93010    0.78700    1.000
    C640     C        0.35390    0.92250    0.75850    1.000
    Zn81     Zn       0.12242    0.96649    0.29612    1.000
    O321     O        0.09183    0.99394    0.27326    1.000
    N801     N        0.15082    0.99811    0.31894    1.000
    N802     N        0.09740    0.93930    0.32683    1.000
    N803     N        0.18836    0.02370    0.34618    1.000
    C641     C        0.04523    0.00127    0.24100    1.000
    O322     O        0.07566    0.95233    0.24365    1.000
    C642     C        0.07344    0.98050    0.25241    1.000
    C643     C        0.16725    0.99914    0.34604    1.000
    C644     C        0.07203    0.91900    0.32600    1.000
    N804     N        0.16200    0.02300    0.30090    1.000
    N805     N        0.05130    0.91690    0.30130    1.000
    H481     H        0.03360    0.90630    0.30360    1.000
    H482     H        0.05570    0.92610    0.28320    1.000
    N806     N        0.16550    0.97640    0.36990    1.000
    H483     H        0.15300    0.96000    0.36770    1.000
    H484     H        0.17700    0.97850    0.38710    1.000
    N807     N        0.06673    0.90570    0.35384    1.000
    N808     N        0.09080    0.91710    0.37330    1.000
    N809     N        0.18300    0.03850    0.31740    1.000
    C645     C        0.02779    0.99143    0.21396    1.000
    H485     H        0.03400    0.97320    0.20230    1.000
    O323     O        0.00780    0.90360    0.39740    1.000
    N810     N        0.10920    0.93510    0.35700    1.000
    C646     C        0.95650    0.94330    0.41040    1.000
    H486     H        0.96930    0.94750    0.39240    1.000
    O324     O        0.99690    0.87210    0.43950    1.000
    C647     C        0.96300    0.91780    0.43010    1.000
    C648     C        0.99150    0.89610    0.42250    1.000
    Zn82     Zn       0.12242    0.46649    0.79612    1.000
    O325     O        0.09183    0.49394    0.77326    1.000
    N811     N        0.15082    0.49811    0.81894    1.000
    N812     N        0.09740    0.43930    0.82683    1.000
    N813     N        0.18836    0.52370    0.84618    1.000
    C649     C        0.04523    0.50127    0.74100    1.000
    O326     O        0.07566    0.45233    0.74365    1.000
    C650     C        0.07344    0.48050    0.75241    1.000
    C651     C        0.16725    0.49914    0.84604    1.000
    C652     C        0.07203    0.41900    0.82600    1.000
    N814     N        0.16200    0.52300    0.80090    1.000
    N815     N        0.05130    0.41690    0.80130    1.000
    H487     H        0.03360    0.40630    0.80360    1.000
    H488     H        0.05570    0.42610    0.78320    1.000
    N816     N        0.16550    0.47640    0.86990    1.000
    H489     H        0.15300    0.46000    0.86770    1.000
    H490     H        0.17700    0.47850    0.88710    1.000
    N817     N        0.06673    0.40570    0.85384    1.000
    N818     N        0.09080    0.41710    0.87330    1.000
    N819     N        0.18300    0.53850    0.81740    1.000
    C653     C        0.02779    0.49143    0.71396    1.000
    H491     H        0.03400    0.47320    0.70230    1.000
    O327     O        0.00780    0.40360    0.89740    1.000
    N820     N        0.10920    0.43510    0.85700    1.000
    C654     C        0.95650    0.44330    0.91040    1.000
    H492     H        0.96930    0.44750    0.89240    1.000
    O328     O        0.99690    0.37210    0.93950    1.000
    C655     C        0.96300    0.41780    0.93010    1.000
    C656     C        0.99150    0.39610    0.92250    1.000
    Zn83     Zn       0.62242    0.96649    0.79612    1.000
    O329     O        0.59183    0.99394    0.77326    1.000
    N821     N        0.65082    0.99811    0.81894    1.000
    N822     N        0.59740    0.93930    0.82683    1.000
    N823     N        0.68836    0.02370    0.84618    1.000
    C657     C        0.54523    0.00127    0.74100    1.000
    O330     O        0.57566    0.95233    0.74365    1.000
    C658     C        0.57344    0.98050    0.75241    1.000
    C659     C        0.66725    0.99914    0.84604    1.000
    C660     C        0.57203    0.91900    0.82600    1.000
    N824     N        0.66200    0.02300    0.80090    1.000
    N825     N        0.55130    0.91690    0.80130    1.000
    H493     H        0.53360    0.90630    0.80360    1.000
    H494     H        0.55570    0.92610    0.78320    1.000
    N826     N        0.66550    0.97640    0.86990    1.000
    H495     H        0.65300    0.96000    0.86770    1.000
    H496     H        0.67700    0.97850    0.88710    1.000
    N827     N        0.56673    0.90570    0.85384    1.000
    N828     N        0.59080    0.91710    0.87330    1.000
    N829     N        0.68300    0.03850    0.81740    1.000
    C661     C        0.52779    0.99143    0.71396    1.000
    H497     H        0.53400    0.97320    0.70230    1.000
    O331     O        0.50780    0.90360    0.89740    1.000
    N830     N        0.60920    0.93510    0.85700    1.000
    C662     C        0.45650    0.94330    0.91040    1.000
    H498     H        0.46930    0.94750    0.89240    1.000
    O332     O        0.49690    0.87210    0.93950    1.000
    C663     C        0.46300    0.91780    0.93010    1.000
    C664     C        0.49150    0.89610    0.92250    1.000
    Zn84     Zn       0.62242    0.46649    0.29612    1.000
    O333     O        0.59183    0.49394    0.27326    1.000
    N831     N        0.65082    0.49811    0.31894    1.000
    N832     N        0.59740    0.43930    0.32683    1.000
    N833     N        0.68836    0.52370    0.34618    1.000
    C665     C        0.54523    0.50127    0.24100    1.000
    O334     O        0.57566    0.45233    0.24365    1.000
    C666     C        0.57344    0.48050    0.25241    1.000
    C667     C        0.66725    0.49914    0.34604    1.000
    C668     C        0.57203    0.41900    0.32600    1.000
    N834     N        0.66200    0.52300    0.30090    1.000
    N835     N        0.55130    0.41690    0.30130    1.000
    H499     H        0.53360    0.40630    0.30360    1.000
    H500     H        0.55570    0.42610    0.28320    1.000
    N836     N        0.66550    0.47640    0.36990    1.000
    H501     H        0.65300    0.46000    0.36770    1.000
    H502     H        0.67700    0.47850    0.38710    1.000
    N837     N        0.56673    0.40570    0.35384    1.000
    N838     N        0.59080    0.41710    0.37330    1.000
    N839     N        0.68300    0.53850    0.31740    1.000
    C669     C        0.52779    0.49143    0.21396    1.000
    H503     H        0.53400    0.47320    0.20230    1.000
    O335     O        0.50780    0.40360    0.39740    1.000
    N840     N        0.60920    0.43510    0.35700    1.000
    C670     C        0.45650    0.44330    0.41040    1.000
    H504     H        0.46930    0.44750    0.39240    1.000
    O336     O        0.49690    0.37210    0.43950    1.000
    C671     C        0.46300    0.41780    0.43010    1.000
    C672     C        0.49150    0.39610    0.42250    1.000
    Zn85     Zn       0.62758    0.96649    0.45388    1.000
    O337     O        0.65817    0.99394    0.47674    1.000
    N841     N        0.59918    0.99811    0.43106    1.000
    N842     N        0.65260    0.93930    0.42317    1.000
    N843     N        0.56164    0.02370    0.40382    1.000
    C673     C        0.70477    0.00127    0.50900    1.000
    O338     O        0.67434    0.95233    0.50635    1.000
    C674     C        0.67656    0.98050    0.49759    1.000
    C675     C        0.58275    0.99914    0.40396    1.000
    C676     C        0.67797    0.91900    0.42400    1.000
    N844     N        0.58800    0.02300    0.44910    1.000
    N845     N        0.69870    0.91690    0.44870    1.000
    H505     H        0.71640    0.90630    0.44640    1.000
    H506     H        0.69430    0.92610    0.46680    1.000
    N846     N        0.58450    0.97640    0.38010    1.000
    H507     H        0.59700    0.96000    0.38230    1.000
    H508     H        0.57300    0.97850    0.36290    1.000
    N847     N        0.68327    0.90570    0.39616    1.000
    N848     N        0.65920    0.91710    0.37670    1.000
    N849     N        0.56700    0.03850    0.43260    1.000
    C677     C        0.72221    0.99143    0.53604    1.000
    H509     H        0.71600    0.97320    0.54770    1.000
    O339     O        0.74220    0.90360    0.35260    1.000
    N850     N        0.64080    0.93510    0.39300    1.000
    C678     C        0.79350    0.94330    0.33960    1.000
    H510     H        0.78070    0.94750    0.35760    1.000
    O340     O        0.75310    0.87210    0.31050    1.000
    C679     C        0.78700    0.91780    0.31990    1.000
    C680     C        0.75850    0.89610    0.32750    1.000
    Zn86     Zn       0.62758    0.46649    0.95388    1.000
    O341     O        0.65817    0.49394    0.97674    1.000
    N851     N        0.59918    0.49811    0.93106    1.000
    N852     N        0.65260    0.43930    0.92317    1.000
    N853     N        0.56164    0.52370    0.90382    1.000
    C681     C        0.70477    0.50127    0.00900    1.000
    O342     O        0.67434    0.45233    0.00635    1.000
    C682     C        0.67656    0.48050    0.99759    1.000
    C683     C        0.58275    0.49914    0.90396    1.000
    C684     C        0.67797    0.41900    0.92400    1.000
    N854     N        0.58800    0.52300    0.94910    1.000
    N855     N        0.69870    0.41690    0.94870    1.000
    H511     H        0.71640    0.40630    0.94640    1.000
    H512     H        0.69430    0.42610    0.96680    1.000
    N856     N        0.58450    0.47640    0.88010    1.000
    H513     H        0.59700    0.46000    0.88230    1.000
    H514     H        0.57300    0.47850    0.86290    1.000
    N857     N        0.68327    0.40570    0.89616    1.000
    N858     N        0.65920    0.41710    0.87670    1.000
    N859     N        0.56700    0.53850    0.93260    1.000
    C685     C        0.72221    0.49143    0.03604    1.000
    H515     H        0.71600    0.47320    0.04770    1.000
    O343     O        0.74220    0.40360    0.85260    1.000
    N860     N        0.64080    0.43510    0.89300    1.000
    C686     C        0.79350    0.44330    0.83960    1.000
    H516     H        0.78070    0.44750    0.85760    1.000
    O344     O        0.75310    0.37210    0.81050    1.000
    C687     C        0.78700    0.41780    0.81990    1.000
    C688     C        0.75850    0.39610    0.82750    1.000
    Zn87     Zn       0.12758    0.96649    0.95388    1.000
    O345     O        0.15817    0.99394    0.97674    1.000
    N861     N        0.09918    0.99811    0.93106    1.000
    N862     N        0.15260    0.93930    0.92317    1.000
    N863     N        0.06164    0.02370    0.90382    1.000
    C689     C        0.20477    0.00127    0.00900    1.000
    O346     O        0.17434    0.95233    0.00635    1.000
    C690     C        0.17656    0.98050    0.99759    1.000
    C691     C        0.08275    0.99914    0.90396    1.000
    C692     C        0.17797    0.91900    0.92400    1.000
    N864     N        0.08800    0.02300    0.94910    1.000
    N865     N        0.19870    0.91690    0.94870    1.000
    H517     H        0.21640    0.90630    0.94640    1.000
    H518     H        0.19430    0.92610    0.96680    1.000
    N866     N        0.08450    0.97640    0.88010    1.000
    H519     H        0.09700    0.96000    0.88230    1.000
    H520     H        0.07300    0.97850    0.86290    1.000
    N867     N        0.18327    0.90570    0.89616    1.000
    N868     N        0.15920    0.91710    0.87670    1.000
    N869     N        0.06700    0.03850    0.93260    1.000
    C693     C        0.22221    0.99143    0.03604    1.000
    H521     H        0.21600    0.97320    0.04770    1.000
    O347     O        0.24220    0.90360    0.85260    1.000
    N870     N        0.14080    0.93510    0.89300    1.000
    C694     C        0.29350    0.94330    0.83960    1.000
    H522     H        0.28070    0.94750    0.85760    1.000
    O348     O        0.25310    0.87210    0.81050    1.000
    C695     C        0.28700    0.91780    0.81990    1.000
    C696     C        0.25850    0.89610    0.82750    1.000
    Zn88     Zn       0.12758    0.46649    0.45388    1.000
    O349     O        0.15817    0.49394    0.47674    1.000
    N871     N        0.09918    0.49811    0.43106    1.000
    N872     N        0.15260    0.43930    0.42317    1.000
    N873     N        0.06164    0.52370    0.40382    1.000
    C697     C        0.20477    0.50127    0.50900    1.000
    O350     O        0.17434    0.45233    0.50635    1.000
    C698     C        0.17656    0.48050    0.49759    1.000
    C699     C        0.08275    0.49914    0.40396    1.000
    C700     C        0.17797    0.41900    0.42400    1.000
    N874     N        0.08800    0.52300    0.44910    1.000
    N875     N        0.19870    0.41690    0.44870    1.000
    H523     H        0.21640    0.40630    0.44640    1.000
    H524     H        0.19430    0.42610    0.46680    1.000
    N876     N        0.08450    0.47640    0.38010    1.000
    H525     H        0.09700    0.46000    0.38230    1.000
    H526     H        0.07300    0.47850    0.36290    1.000
    N877     N        0.18327    0.40570    0.39616    1.000
    N878     N        0.15920    0.41710    0.37670    1.000
    N879     N        0.06700    0.53850    0.43260    1.000
    C701     C        0.22221    0.49143    0.53604    1.000
    H527     H        0.21600    0.47320    0.54770    1.000
    O351     O        0.24220    0.40360    0.35260    1.000
    N880     N        0.14080    0.43510    0.39300    1.000
    C702     C        0.29350    0.44330    0.33960    1.000
    H528     H        0.28070    0.44750    0.35760    1.000
    O352     O        0.25310    0.37210    0.31050    1.000
    C703     C        0.28700    0.41780    0.31990    1.000
    C704     C        0.25850    0.39610    0.32750    1.000
    Zn89     Zn       0.12242    0.78351    0.45388    1.000
    O353     O        0.09183    0.75606    0.47674    1.000
    N881     N        0.15082    0.75189    0.43106    1.000
    N882     N        0.09740    0.81070    0.42317    1.000
    N883     N        0.18836    0.72630    0.40382    1.000
    C705     C        0.04523    0.74873    0.50900    1.000
    O354     O        0.07566    0.79767    0.50635    1.000
    C706     C        0.07344    0.76950    0.49759    1.000
    C707     C        0.16725    0.75086    0.40396    1.000
    C708     C        0.07203    0.83100    0.42400    1.000
    N884     N        0.16200    0.72700    0.44910    1.000
    N885     N        0.05130    0.83310    0.44870    1.000
    H529     H        0.03360    0.84370    0.44640    1.000
    H530     H        0.05570    0.82390    0.46680    1.000
    N886     N        0.16550    0.77360    0.38010    1.000
    H531     H        0.15300    0.79000    0.38230    1.000
    H532     H        0.17700    0.77150    0.36290    1.000
    N887     N        0.06673    0.84430    0.39616    1.000
    N888     N        0.09080    0.83290    0.37670    1.000
    N889     N        0.18300    0.71150    0.43260    1.000
    C709     C        0.02779    0.75857    0.53604    1.000
    H533     H        0.03400    0.77680    0.54770    1.000
    O355     O        0.00780    0.84640    0.35260    1.000
    N890     N        0.10920    0.81490    0.39300    1.000
    C710     C        0.95650    0.80670    0.33960    1.000
    H534     H        0.96930    0.80250    0.35760    1.000
    O356     O        0.99690    0.87790    0.31050    1.000
    C711     C        0.96300    0.83220    0.31990    1.000
    C712     C        0.99150    0.85390    0.32750    1.000
    Zn90     Zn       0.12242    0.28351    0.95388    1.000
    O357     O        0.09183    0.25606    0.97674    1.000
    N891     N        0.15082    0.25189    0.93106    1.000
    N892     N        0.09740    0.31070    0.92317    1.000
    N893     N        0.18836    0.22630    0.90382    1.000
    C713     C        0.04523    0.24873    0.00900    1.000
    O358     O        0.07566    0.29767    0.00635    1.000
    C714     C        0.07344    0.26950    0.99759    1.000
    C715     C        0.16725    0.25086    0.90396    1.000
    C716     C        0.07203    0.33100    0.92400    1.000
    N894     N        0.16200    0.22700    0.94910    1.000
    N895     N        0.05130    0.33310    0.94870    1.000
    H535     H        0.03360    0.34370    0.94640    1.000
    H536     H        0.05570    0.32390    0.96680    1.000
    N896     N        0.16550    0.27360    0.88010    1.000
    H537     H        0.15300    0.29000    0.88230    1.000
    H538     H        0.17700    0.27150    0.86290    1.000
    N897     N        0.06673    0.34430    0.89616    1.000
    N898     N        0.09080    0.33290    0.87670    1.000
    N899     N        0.18300    0.21150    0.93260    1.000
    C717     C        0.02779    0.25857    0.03604    1.000
    H539     H        0.03400    0.27680    0.04770    1.000
    O359     O        0.00780    0.34640    0.85260    1.000
    N900     N        0.10920    0.31490    0.89300    1.000
    C718     C        0.95650    0.30670    0.83960    1.000
    H540     H        0.96930    0.30250    0.85760    1.000
    O360     O        0.99690    0.37790    0.81050    1.000
    C719     C        0.96300    0.33220    0.81990    1.000
    C720     C        0.99150    0.35390    0.82750    1.000
    Zn91     Zn       0.62242    0.78351    0.95388    1.000
    O361     O        0.59183    0.75606    0.97674    1.000
    N901     N        0.65082    0.75189    0.93106    1.000
    N902     N        0.59740    0.81070    0.92317    1.000
    N903     N        0.68836    0.72630    0.90382    1.000
    C721     C        0.54523    0.74873    0.00900    1.000
    O362     O        0.57566    0.79767    0.00635    1.000
    C722     C        0.57344    0.76950    0.99759    1.000
    C723     C        0.66725    0.75086    0.90396    1.000
    C724     C        0.57203    0.83100    0.92400    1.000
    N904     N        0.66200    0.72700    0.94910    1.000
    N905     N        0.55130    0.83310    0.94870    1.000
    H541     H        0.53360    0.84370    0.94640    1.000
    H542     H        0.55570    0.82390    0.96680    1.000
    N906     N        0.66550    0.77360    0.88010    1.000
    H543     H        0.65300    0.79000    0.88230    1.000
    H544     H        0.67700    0.77150    0.86290    1.000
    N907     N        0.56673    0.84430    0.89616    1.000
    N908     N        0.59080    0.83290    0.87670    1.000
    N909     N        0.68300    0.71150    0.93260    1.000
    C725     C        0.52779    0.75857    0.03604    1.000
    H545     H        0.53400    0.77680    0.04770    1.000
    O363     O        0.50780    0.84640    0.85260    1.000
    N910     N        0.60920    0.81490    0.89300    1.000
    C726     C        0.45650    0.80670    0.83960    1.000
    H546     H        0.46930    0.80250    0.85760    1.000
    O364     O        0.49690    0.87790    0.81050    1.000
    C727     C        0.46300    0.83220    0.81990    1.000
    C728     C        0.49150    0.85390    0.82750    1.000
    Zn92     Zn       0.62242    0.28351    0.45388    1.000
    O365     O        0.59183    0.25606    0.47674    1.000
    N911     N        0.65082    0.25189    0.43106    1.000
    N912     N        0.59740    0.31070    0.42317    1.000
    N913     N        0.68836    0.22630    0.40382    1.000
    C729     C        0.54523    0.24873    0.50900    1.000
    O366     O        0.57566    0.29767    0.50635    1.000
    C730     C        0.57344    0.26950    0.49759    1.000
    C731     C        0.66725    0.25086    0.40396    1.000
    C732     C        0.57203    0.33100    0.42400    1.000
    N914     N        0.66200    0.22700    0.44910    1.000
    N915     N        0.55130    0.33310    0.44870    1.000
    H547     H        0.53360    0.34370    0.44640    1.000
    H548     H        0.55570    0.32390    0.46680    1.000
    N916     N        0.66550    0.27360    0.38010    1.000
    H549     H        0.65300    0.29000    0.38230    1.000
    H550     H        0.67700    0.27150    0.36290    1.000
    N917     N        0.56673    0.34430    0.39616    1.000
    N918     N        0.59080    0.33290    0.37670    1.000
    N919     N        0.68300    0.21150    0.43260    1.000
    C733     C        0.52779    0.25857    0.53604    1.000
    H551     H        0.53400    0.27680    0.54770    1.000
    O367     O        0.50780    0.34640    0.35260    1.000
    N920     N        0.60920    0.31490    0.39300    1.000
    C734     C        0.45650    0.30670    0.33960    1.000
    H552     H        0.46930    0.30250    0.35760    1.000
    O368     O        0.49690    0.37790    0.31050    1.000
    C735     C        0.46300    0.33220    0.31990    1.000
    C736     C        0.49150    0.35390    0.32750    1.000
    Zn93     Zn       0.62758    0.78351    0.29612    1.000
    O369     O        0.65817    0.75606    0.27326    1.000
    N921     N        0.59918    0.75189    0.31894    1.000
    N922     N        0.65260    0.81070    0.32683    1.000
    N923     N        0.56164    0.72630    0.34618    1.000
    C737     C        0.70477    0.74873    0.24100    1.000
    O370     O        0.67434    0.79767    0.24365    1.000
    C738     C        0.67656    0.76950    0.25241    1.000
    C739     C        0.58275    0.75086    0.34604    1.000
    C740     C        0.67797    0.83100    0.32600    1.000
    N924     N        0.58800    0.72700    0.30090    1.000
    N925     N        0.69870    0.83310    0.30130    1.000
    H553     H        0.71640    0.84370    0.30360    1.000
    H554     H        0.69430    0.82390    0.28320    1.000
    N926     N        0.58450    0.77360    0.36990    1.000
    H555     H        0.59700    0.79000    0.36770    1.000
    H556     H        0.57300    0.77150    0.38710    1.000
    N927     N        0.68327    0.84430    0.35384    1.000
    N928     N        0.65920    0.83290    0.37330    1.000
    N929     N        0.56700    0.71150    0.31740    1.000
    C741     C        0.72221    0.75857    0.21396    1.000
    H557     H        0.71600    0.77680    0.20230    1.000
    O371     O        0.74220    0.84640    0.39740    1.000
    N930     N        0.64080    0.81490    0.35700    1.000
    C742     C        0.79350    0.80670    0.41040    1.000
    H558     H        0.78070    0.80250    0.39240    1.000
    O372     O        0.75310    0.87790    0.43950    1.000
    C743     C        0.78700    0.83220    0.43010    1.000
    C744     C        0.75850    0.85390    0.42250    1.000
    Zn94     Zn       0.62758    0.28351    0.79612    1.000
    O373     O        0.65817    0.25606    0.77326    1.000
    N931     N        0.59918    0.25189    0.81894    1.000
    N932     N        0.65260    0.31070    0.82683    1.000
    N933     N        0.56164    0.22630    0.84618    1.000
    C745     C        0.70477    0.24873    0.74100    1.000
    O374     O        0.67434    0.29767    0.74365    1.000
    C746     C        0.67656    0.26950    0.75241    1.000
    C747     C        0.58275    0.25086    0.84604    1.000
    C748     C        0.67797    0.33100    0.82600    1.000
    N934     N        0.58800    0.22700    0.80090    1.000
    N935     N        0.69870    0.33310    0.80130    1.000
    H559     H        0.71640    0.34370    0.80360    1.000
    H560     H        0.69430    0.32390    0.78320    1.000
    N936     N        0.58450    0.27360    0.86990    1.000
    H561     H        0.59700    0.29000    0.86770    1.000
    H562     H        0.57300    0.27150    0.88710    1.000
    N937     N        0.68327    0.34430    0.85384    1.000
    N938     N        0.65920    0.33290    0.87330    1.000
    N939     N        0.56700    0.21150    0.81740    1.000
    C749     C        0.72221    0.25857    0.71396    1.000
    H563     H        0.71600    0.27680    0.70230    1.000
    O375     O        0.74220    0.34640    0.89740    1.000
    N940     N        0.64080    0.31490    0.85700    1.000
    C750     C        0.79350    0.30670    0.91040    1.000
    H564     H        0.78070    0.30250    0.89240    1.000
    O376     O        0.75310    0.37790    0.93950    1.000
    C751     C        0.78700    0.33220    0.93010    1.000
    C752     C        0.75850    0.35390    0.92250    1.000
    Zn95     Zn       0.12758    0.78351    0.79612    1.000
    O377     O        0.15817    0.75606    0.77326    1.000
    N941     N        0.09918    0.75189    0.81894    1.000
    N942     N        0.15260    0.81070    0.82683    1.000
    N943     N        0.06164    0.72630    0.84618    1.000
    C753     C        0.20477    0.74873    0.74100    1.000
    O378     O        0.17434    0.79767    0.74365    1.000
    C754     C        0.17656    0.76950    0.75241    1.000
    C755     C        0.08275    0.75086    0.84604    1.000
    C756     C        0.17797    0.83100    0.82600    1.000
    N944     N        0.08800    0.72700    0.80090    1.000
    N945     N        0.19870    0.83310    0.80130    1.000
    H565     H        0.21640    0.84370    0.80360    1.000
    H566     H        0.19430    0.82390    0.78320    1.000
    N946     N        0.08450    0.77360    0.86990    1.000
    H567     H        0.09700    0.79000    0.86770    1.000
    H568     H        0.07300    0.77150    0.88710    1.000
    N947     N        0.18327    0.84430    0.85384    1.000
    N948     N        0.15920    0.83290    0.87330    1.000
    N949     N        0.06700    0.71150    0.81740    1.000
    C757     C        0.22221    0.75857    0.71396    1.000
    H569     H        0.21600    0.77680    0.70230    1.000
    O379     O        0.24220    0.84640    0.89740    1.000
    N950     N        0.14080    0.81490    0.85700    1.000
    C758     C        0.29350    0.80670    0.91040    1.000
    H570     H        0.28070    0.80250    0.89240    1.000
    O380     O        0.25310    0.87790    0.93950    1.000
    C759     C        0.28700    0.83220    0.93010    1.000
    C760     C        0.25850    0.85390    0.92250    1.000
    Zn96     Zn       0.12758    0.28351    0.29612    1.000
    O381     O        0.15817    0.25606    0.27326    1.000
    N951     N        0.09918    0.25189    0.31894    1.000
    N952     N        0.15260    0.31070    0.32683    1.000
    N953     N        0.06164    0.22630    0.34618    1.000
    C761     C        0.20477    0.24873    0.24100    1.000
    O382     O        0.17434    0.29767    0.24365    1.000
    C762     C        0.17656    0.26950    0.25241    1.000
    C763     C        0.08275    0.25086    0.34604    1.000
    C764     C        0.17797    0.33100    0.32600    1.000
    N954     N        0.08800    0.22700    0.30090    1.000
    N955     N        0.19870    0.33310    0.30130    1.000
    H571     H        0.21640    0.34370    0.30360    1.000
    H572     H        0.19430    0.32390    0.28320    1.000
    N956     N        0.08450    0.27360    0.36990    1.000
    H573     H        0.09700    0.29000    0.36770    1.000
    H574     H        0.07300    0.27150    0.38710    1.000
    N957     N        0.18327    0.34430    0.35384    1.000
    N958     N        0.15920    0.33290    0.37330    1.000
    N959     N        0.06700    0.21150    0.31740    1.000
    C765     C        0.22221    0.25857    0.21396    1.000
    H575     H        0.21600    0.27680    0.20230    1.000
    O383     O        0.24220    0.34640    0.39740    1.000
    N960     N        0.14080    0.31490    0.35700    1.000
    C766     C        0.29350    0.30670    0.41040    1.000
    H576     H        0.28070    0.30250    0.39240    1.000
    O384     O        0.25310    0.37790    0.43950    1.000
    C767     C        0.28700    0.33220    0.43010    1.000
    C768     C        0.25850    0.35390    0.42250    1.000
    Zn97     Zn       0.62500    0.96384    0.12500    1.000
    Zn98     Zn       0.62500    0.46384    0.62500    1.000
    Zn99     Zn       0.12500    0.96384    0.62500    1.000
    Zn100    Zn       0.12500    0.46384    0.12500    1.000
    Zn101    Zn       0.62500    0.28616    0.12500    1.000
    Zn102    Zn       0.62500    0.78616    0.62500    1.000
    Zn103    Zn       0.12500    0.28616    0.62500    1.000
    Zn104    Zn       0.12500    0.78616    0.12500    1.000
    Zn105    Zn       0.12500    0.62500    0.96384    1.000
    Zn106    Zn       0.12500    0.12500    0.46384    1.000
    Zn107    Zn       0.62500    0.62500    0.46384    1.000
    Zn108    Zn       0.62500    0.12500    0.96384    1.000
    Zn109    Zn       0.12500    0.62500    0.28616    1.000
    Zn110    Zn       0.12500    0.12500    0.78616    1.000
    Zn111    Zn       0.62500    0.62500    0.78616    1.000
    Zn112    Zn       0.62500    0.12500    0.28616    1.000
    Zn113    Zn       0.96384    0.12500    0.62500    1.000
    Zn114    Zn       0.96384    0.62500    0.12500    1.000
    Zn115    Zn       0.46384    0.12500    0.12500    1.000
    Zn116    Zn       0.46384    0.62500    0.62500    1.000
    Zn117    Zn       0.28616    0.12500    0.62500    1.000
    Zn118    Zn       0.28616    0.62500    0.12500    1.000
    Zn119    Zn       0.78616    0.12500    0.12500    1.000
    Zn120    Zn       0.78616    0.62500    0.62500    1.000
    Zn121    Zn       0.37500    0.03616    0.87500    1.000
    Zn122    Zn       0.37500    0.53616    0.37500    1.000
    Zn123    Zn       0.87500    0.03616    0.37500    1.000
    Zn124    Zn       0.87500    0.53616    0.87500    1.000
    Zn125    Zn       0.37500    0.71384    0.87500    1.000
    Zn126    Zn       0.37500    0.21384    0.37500    1.000
    Zn127    Zn       0.87500    0.71384    0.37500    1.000
    Zn128    Zn       0.87500    0.21384    0.87500    1.000
    Zn129    Zn       0.87500    0.37500    0.03616    1.000
    Zn130    Zn       0.87500    0.87500    0.53616    1.000
    Zn131    Zn       0.37500    0.37500    0.53616    1.000
    Zn132    Zn       0.37500    0.87500    0.03616    1.000
    Zn133    Zn       0.87500    0.37500    0.71384    1.000
    Zn134    Zn       0.87500    0.87500    0.21384    1.000
    Zn135    Zn       0.37500    0.37500    0.21384    1.000
    Zn136    Zn       0.37500    0.87500    0.71384    1.000
    Zn137    Zn       0.03616    0.87500    0.37500    1.000
    Zn138    Zn       0.03616    0.37500    0.87500    1.000
    Zn139    Zn       0.53616    0.87500    0.87500    1.000
    Zn140    Zn       0.53616    0.37500    0.37500    1.000
    Zn141    Zn       0.71384    0.87500    0.37500    1.000
    Zn142    Zn       0.71384    0.37500    0.87500    1.000
    Zn143    Zn       0.21384    0.87500    0.87500    1.000
    Zn144    Zn       0.21384    0.37500    0.37500    1.000
