# CIF file generated by openbabel 3.1.0, see https://openbabel.org
data_I
_chemical_name_common 'DAPXEZ_clean'
_cell_length_a 9.8707
_cell_length_b 16.5087
_cell_length_c 16.4722
_cell_angle_alpha 90
_cell_angle_beta 90
_cell_angle_gamma 90
_space_group_name_H-M_alt 'P 1'
_space_group_name_Hall 'P 1'
loop_
    _symmetry_equiv_pos_as_xyz
    x,y,z
loop_
    _atom_site_label
    _atom_site_type_symbol
    _atom_site_fract_x
    _atom_site_fract_y
    _atom_site_fract_z
    _atom_site_occupancy
    Ni1      Ni       0.37116    0.55204    0.03555    1.000
    Ni2      Ni       0.62884    0.44796    0.53555    1.000
    Ni3      Ni       0.62884    0.05204    0.03555    1.000
    Ni4      Ni       0.37116    0.94796    0.53555    1.000
    Ge1      Ge       0.09054    0.47498    0.05226    1.000
    Ge2      Ge       0.95452    0.57292    0.91424    1.000
    Ge3      Ge       0.06377    0.66318    0.06008    1.000
    Ge4      Ge       0.86759    0.34875    0.07743    1.000
    Ge5      Ge       0.97565    0.44186    0.22244    1.000
    Ge6      Ge       0.72958    0.50521    0.02202    1.000
    Ge7      Ge       0.82667    0.59544    0.16394    1.000
    Ge8      Ge       0.90946    0.52502    0.55226    1.000
    Ge9      Ge       0.04548    0.42708    0.41424    1.000
    Ge10     Ge       0.93623    0.33682    0.56008    1.000
    Ge11     Ge       0.13241    0.65125    0.57743    1.000
    Ge12     Ge       0.02435    0.55814    0.72244    1.000
    Ge13     Ge       0.27042    0.49479    0.52202    1.000
    Ge14     Ge       0.17333    0.40456    0.66394    1.000
    Ge15     Ge       0.90946    0.97498    0.05226    1.000
    Ge16     Ge       0.04548    0.07292    0.91424    1.000
    Ge17     Ge       0.93623    0.16318    0.06008    1.000
    Ge18     Ge       0.13241    0.84875    0.07743    1.000
    Ge19     Ge       0.02435    0.94186    0.22244    1.000
    Ge20     Ge       0.27042    0.00521    0.02202    1.000
    Ge21     Ge       0.17333    0.09544    0.16394    1.000
    Ge22     Ge       0.09054    0.02502    0.55226    1.000
    Ge23     Ge       0.95452    0.92708    0.41424    1.000
    Ge24     Ge       0.06377    0.83682    0.56008    1.000
    Ge25     Ge       0.86759    0.15125    0.57743    1.000
    Ge26     Ge       0.97565    0.05814    0.72244    1.000
    Ge27     Ge       0.72958    0.99479    0.52202    1.000
    Ge28     Ge       0.82667    0.90456    0.66394    1.000
    H1       H        0.51540    0.40310    0.12920    1.000
    H2       H        0.39930    0.38740    0.19230    1.000
    H3       H        0.38730    0.34620    0.03890    1.000
    H4       H        0.26290    0.34580    0.09800    1.000
    H5       H        0.41280    0.52080    0.81110    1.000
    H6       H        0.51290    0.58430    0.84930    1.000
    H7       H        0.45710    0.42930    0.91200    1.000
    H8       H        0.59840    0.45920    0.87960    1.000
    H9       H        0.48460    0.59690    0.62920    1.000
    H10      H        0.60070    0.61260    0.69230    1.000
    H11      H        0.61270    0.65380    0.53890    1.000
    H12      H        0.73710    0.65420    0.59800    1.000
    H13      H        0.58720    0.47920    0.31110    1.000
    H14      H        0.48710    0.41570    0.34930    1.000
    H15      H        0.54290    0.57070    0.41200    1.000
    H16      H        0.40160    0.54080    0.37960    1.000
    H17      H        0.48460    0.90310    0.12920    1.000
    H18      H        0.60070    0.88740    0.19230    1.000
    H19      H        0.61270    0.84620    0.03890    1.000
    H20      H        0.73710    0.84580    0.09800    1.000
    H21      H        0.58720    0.02080    0.81110    1.000
    H22      H        0.48710    0.08430    0.84930    1.000
    H23      H        0.54290    0.92930    0.91200    1.000
    H24      H        0.40160    0.95920    0.87960    1.000
    H25      H        0.51540    0.09690    0.62920    1.000
    H26      H        0.39930    0.11260    0.69230    1.000
    H27      H        0.38730    0.15380    0.53890    1.000
    H28      H        0.26290    0.15420    0.59800    1.000
    H29      H        0.41280    0.97920    0.31110    1.000
    H30      H        0.51290    0.91570    0.34930    1.000
    H31      H        0.45710    0.07070    0.41200    1.000
    H32      H        0.59840    0.04080    0.37960    1.000
    C1       C        0.42120    0.41430    0.14160    1.000
    C2       C        0.33220    0.37990    0.07410    1.000
    C3       C        0.44830    0.54190    0.86180    1.000
    C4       C        0.51670    0.47580    0.90780    1.000
    C5       C        0.57880    0.58570    0.64160    1.000
    C6       C        0.66780    0.62010    0.57410    1.000
    C7       C        0.55170    0.45810    0.36180    1.000
    C8       C        0.48330    0.52420    0.40780    1.000
    C9       C        0.57880    0.91430    0.14160    1.000
    C10      C        0.66780    0.87990    0.07410    1.000
    C11      C        0.55170    0.04190    0.86180    1.000
    C12      C        0.48330    0.97580    0.90780    1.000
    C13      C        0.42120    0.08570    0.64160    1.000
    C14      C        0.33220    0.12010    0.57410    1.000
    C15      C        0.44830    0.95810    0.36180    1.000
    C16      C        0.51670    0.02420    0.40780    1.000
    N1       N        0.40230    0.50750    0.15240    1.000
    N2       N        0.33480    0.57560    0.91230    1.000
    N3       N        0.59770    0.49250    0.65240    1.000
    N4       N        0.66520    0.42440    0.41230    1.000
    N5       N        0.59770    0.00750    0.15240    1.000
    N6       N        0.66520    0.07560    0.91230    1.000
    N7       N        0.40230    0.99250    0.65240    1.000
    N8       N        0.33480    0.92440    0.41230    1.000
    O1       O        0.26860    0.44160    0.02660    1.000
    O2       O        0.16750    0.57950    0.06840    1.000
    O3       O        0.06830    0.49770    0.94020    1.000
    O4       O        0.11730    0.45570    0.16250    1.000
    O5       O        0.02340    0.37110    0.03460    1.000
    O6       O        0.17140    0.74640    0.06680    1.000
    O7       O        0.97200    0.60010    0.81400    1.000
    O8       O        0.98610    0.66530    0.96500    1.000
    O9       O        0.91090    0.51770    0.07350    1.000
    O10      O        0.88470    0.53120    0.24260    1.000
    O11      O        0.86430    0.36850    0.18130    1.000
    O12      O        0.94350    0.67120    0.13640    1.000
    O13      O        0.78670    0.54710    0.92810    1.000
    O14      O        0.73380    0.39770    0.02920    1.000
    O15      O        0.68270    0.56830    0.10410    1.000
    O16      O        0.55060    0.50510    0.98810    1.000
    O17      O        0.73140    0.55840    0.52660    1.000
    O18      O        0.83250    0.42050    0.56840    1.000
    O19      O        0.93170    0.50230    0.44020    1.000
    O20      O        0.88270    0.54430    0.66250    1.000
    O21      O        0.97660    0.62890    0.53460    1.000
    O22      O        0.82860    0.25360    0.56680    1.000
    O23      O        0.02800    0.39990    0.31400    1.000
    O24      O        0.01390    0.33470    0.46500    1.000
    O25      O        0.08910    0.48230    0.57350    1.000
    O26      O        0.11530    0.46880    0.74260    1.000
    O27      O        0.13570    0.63150    0.68130    1.000
    O28      O        0.05650    0.32880    0.63640    1.000
    O29      O        0.21330    0.45290    0.42810    1.000
    O30      O        0.26620    0.60230    0.52920    1.000
    O31      O        0.31730    0.43170    0.60410    1.000
    O32      O        0.44940    0.49490    0.48810    1.000
    O33      O        0.73140    0.94160    0.02660    1.000
    O34      O        0.83250    0.07950    0.06840    1.000
    O35      O        0.93170    0.99770    0.94020    1.000
    O36      O        0.88270    0.95570    0.16250    1.000
    O37      O        0.97660    0.87110    0.03460    1.000
    O38      O        0.82860    0.24640    0.06680    1.000
    O39      O        0.02800    0.10010    0.81400    1.000
    O40      O        0.01390    0.16530    0.96500    1.000
    O41      O        0.08910    0.01770    0.07350    1.000
    O42      O        0.11530    0.03120    0.24260    1.000
    O43      O        0.13570    0.86850    0.18130    1.000
    O44      O        0.05650    0.17120    0.13640    1.000
    O45      O        0.21330    0.04710    0.92810    1.000
    O46      O        0.26620    0.89770    0.02920    1.000
    O47      O        0.31730    0.06830    0.10410    1.000
    O48      O        0.44940    0.00510    0.98810    1.000
    O49      O        0.26860    0.05840    0.52660    1.000
    O50      O        0.16750    0.92050    0.56840    1.000
    O51      O        0.06830    0.00230    0.44020    1.000
    O52      O        0.11730    0.04430    0.66250    1.000
    O53      O        0.02340    0.12890    0.53460    1.000
    O54      O        0.17140    0.75360    0.56680    1.000
    O55      O        0.97200    0.89990    0.31400    1.000
    O56      O        0.98610    0.83470    0.46500    1.000
    O57      O        0.91090    0.98230    0.57350    1.000
    O58      O        0.88470    0.96880    0.74260    1.000
    O59      O        0.86430    0.13150    0.68130    1.000
    O60      O        0.94350    0.82880    0.63640    1.000
    O61      O        0.78670    0.95290    0.42810    1.000
    O62      O        0.73380    0.10230    0.52920    1.000
    O63      O        0.68270    0.93170    0.60410    1.000
    O64      O        0.55060    0.99490    0.48810    1.000
