# CIF file generated by openbabel 3.1.0, see https://openbabel.org
data_I
_chemical_name_common 'GUSCIH_clean'
_cell_length_a 9.9962
_cell_length_b 10.626
_cell_length_c 10.8273
_cell_angle_alpha 80.552
_cell_angle_beta 73.117
_cell_angle_gamma 74.129
_space_group_name_H-M_alt 'P 1'
_space_group_name_Hall 'P 1'
loop_
    _symmetry_equiv_pos_as_xyz
    x,y,z
loop_
    _atom_site_label
    _atom_site_type_symbol
    _atom_site_fract_x
    _atom_site_fract_y
    _atom_site_fract_z
    _atom_site_occupancy
    Gd1      Gd       0.67484    0.69283    0.03667    1.000
    Gd2      Gd       0.32516    0.30717    0.96333    1.000
    Ni1      Ni       0.78685    0.86753    0.62009    1.000
    Ni2      Ni       0.21315    0.13247    0.37991    1.000
    H1       H        0.56380    0.69440    0.73980    1.000
    H2       H        0.36570    0.66540    0.69070    1.000
    H3       H        0.31900    0.75570    0.49390    1.000
    H4       H        0.98320    0.26990    0.62030    1.000
    H5       H        0.77580    0.43600    0.65270    1.000
    H6       H        0.69970    0.55250    0.47410    1.000
    H7       H        0.43620    0.30560    0.26020    1.000
    H8       H        0.63430    0.33460    0.30930    1.000
    H9       H        0.68100    0.24430    0.50610    1.000
    H10      H        0.01680    0.73010    0.37970    1.000
    H11      H        0.22420    0.56400    0.34730    1.000
    H12      H        0.30030    0.44750    0.52590    1.000
    C1       C        0.54500    0.73110    0.66070    1.000
    C2       C        0.42630    0.71280    0.63180    1.000
    C3       C        0.39930    0.76580    0.51450    1.000
    C4       C        0.49270    0.83500    0.42620    1.000
    C5       C        0.60890    0.85060    0.46270    1.000
    C6       C        0.71420    0.92990    0.38060    1.000
    C7       C        0.46640    0.88350    0.29480    1.000
    C8       C        0.95420    0.31830    0.54890    1.000
    C9       C        0.82910    0.41700    0.56910    1.000
    C10      C        0.78470    0.48710    0.46250    1.000
    C11      C        0.86750    0.45960    0.33830    1.000
    C12      C        0.99330    0.36120    0.32680    1.000
    C13      C        0.09910    0.32970    0.19890    1.000
    C14      C        0.81420    0.53800    0.22400    1.000
    C15      C        0.44030    0.52280    0.06090    1.000
    C16      C        0.45500    0.26890    0.33930    1.000
    C17      C        0.57370    0.28720    0.36820    1.000
    C18      C        0.60070    0.23420    0.48550    1.000
    C19      C        0.50730    0.16500    0.57380    1.000
    C20      C        0.39110    0.14940    0.53730    1.000
    C21      C        0.28580    0.07010    0.61940    1.000
    C22      C        0.53360    0.11650    0.70520    1.000
    C23      C        0.04580    0.68170    0.45110    1.000
    C24      C        0.17090    0.58300    0.43090    1.000
    C25      C        0.21530    0.51290    0.53750    1.000
    C26      C        0.13250    0.54040    0.66170    1.000
    C27      C        0.00670    0.63880    0.67320    1.000
    C28      C        0.90090    0.67030    0.80110    1.000
    C29      C        0.18580    0.46200    0.77600    1.000
    C30      C        0.55970    0.47720    0.93910    1.000
    N1       N        0.63360    0.79960    0.57920    1.000
    N2       N        0.03470    0.29020    0.43010    1.000
    N3       N        0.36640    0.20040    0.42080    1.000
    N4       N        0.96530    0.70980    0.56990    1.000
    O1       O        0.80190    0.94840    0.43546    1.000
    O2       O        0.70630    0.97330    0.26847    1.000
    O3       O        0.52640    0.80460    0.20968    1.000
    O4       O        0.38290    0.99190    0.27735    1.000
    O5       O        0.07900    0.39610    0.09702    1.000
    O6       O        0.21190    0.23840    0.20067    1.000
    O7       O        0.74650    0.48920    0.17110    1.000
    O8       O        0.83030    0.65270    0.19350    1.000
    O9       O        0.45650    0.60830    0.11750    1.000
    O10      O        0.33630    0.46830    0.09314    1.000
    O11      O        0.19810    0.05160    0.56454    1.000
    O12      O        0.29370    0.02670    0.73153    1.000
    O13      O        0.47360    0.19540    0.79032    1.000
    O14      O        0.61710    0.00810    0.72265    1.000
    O15      O        0.92100    0.60390    0.90298    1.000
    O16      O        0.78810    0.76160    0.79933    1.000
    O17      O        0.25350    0.51080    0.82890    1.000
    O18      O        0.16970    0.34730    0.80650    1.000
    O19      O        0.54350    0.39170    0.88250    1.000
    O20      O        0.66370    0.53170    0.90686    1.000
