# CIF file generated by openbabel 3.1.0, see https://openbabel.org
data_I
_chemical_name_common 'MIFLIY_clean'
_cell_length_a 10.7574
_cell_length_b 15.8135
_cell_length_c 17.4957
_cell_angle_alpha 114.107
_cell_angle_beta 104.093
_cell_angle_gamma 98.132
_space_group_name_H-M_alt 'P 1'
_space_group_name_Hall 'P 1'
loop_
    _symmetry_equiv_pos_as_xyz
    x,y,z
loop_
    _atom_site_label
    _atom_site_type_symbol
    _atom_site_fract_x
    _atom_site_fract_y
    _atom_site_fract_z
    _atom_site_occupancy
    Mg1      Mg       0.50000    0.00000    0.50000    1.000
    Mg2      Mg       0.50000    0.50000    0.50000    1.000
    H1       H        0.49160    0.08010    0.96180    1.000
    H2       H        0.39120    0.08800    0.83300    1.000
    H3       H        0.70970    0.04230    0.75500    1.000
    H4       H        0.80990    0.03070    0.88220    1.000
    H5       H        0.67710    0.15890    0.09940    1.000
    H6       H        0.59880    0.12860    0.24080    1.000
    H7       H        0.57190    0.24770    0.36500    1.000
    H8       H        0.94990    0.40310    0.43940    1.000
    H9       H        0.97730    0.28520    0.31480    1.000
    H10      H        0.97020    0.88170    0.96180    1.000
    H11      H        0.94180    0.74500    0.83300    1.000
    H12      H        0.54530    0.71270    0.75500    1.000
    H13      H        0.57230    0.85150    0.88220    1.000
    H14      H        0.92230    0.94050    0.09940    1.000
    H15      H        0.14200    0.11220    0.24080    1.000
    H16      H        0.29310    0.11730    0.36500    1.000
    H17      H        0.98950    0.03630    0.43940    1.000
    H18      H        0.83750    0.02960    0.31480    1.000
    H19      H        0.50840    0.91990    0.03820    1.000
    H20      H        0.60880    0.91200    0.16700    1.000
    H21      H        0.29030    0.95770    0.24500    1.000
    H22      H        0.19010    0.96930    0.11780    1.000
    H23      H        0.32290    0.84110    0.90060    1.000
    H24      H        0.40120    0.87140    0.75920    1.000
    H25      H        0.42810    0.75230    0.63500    1.000
    H26      H        0.05010    0.59690    0.56060    1.000
    H27      H        0.02270    0.71480    0.68520    1.000
    H28      H        0.02980    0.11830    0.03820    1.000
    H29      H        0.05820    0.25500    0.16700    1.000
    H30      H        0.45470    0.28730    0.24500    1.000
    H31      H        0.42770    0.14850    0.11780    1.000
    H32      H        0.07770    0.05950    0.90060    1.000
    H33      H        0.85800    0.88780    0.75920    1.000
    H34      H        0.70690    0.88270    0.63500    1.000
    H35      H        0.01050    0.96370    0.56060    1.000
    H36      H        0.16250    0.97040    0.68520    1.000
    C1       C        0.65852    0.05002    0.93504    1.000
    C2       C        0.53526    0.06976    0.91892    1.000
    C3       C        0.47554    0.07484    0.84228    1.000
    C4       C        0.53733    0.06093    0.77806    1.000
    C5       C        0.66356    0.04736    0.79592    1.000
    C6       C        0.72381    0.04111    0.87202    1.000
    C7       C        0.72544    0.04454    0.01748    1.000
    C8       C        0.72783    0.11433    0.09926    1.000
    C9       C        0.80129    0.12209    0.18118    1.000
    C10      C        0.79075    0.19695    0.26450    1.000
    C11      C        0.66988    0.18478    0.28036    1.000
    C12      C        0.65445    0.25575    0.35470    1.000
    C13      C        0.75687    0.33747    0.41354    1.000
    C14      C        0.87787    0.34787    0.39874    1.000
    C15      C        0.89414    0.27744    0.32428    1.000
    C16      C        0.46912    0.05792    0.69084    1.000
    C17      C        0.73498    0.41268    0.49056    1.000
    C18      C        0.77652    0.88502    0.93504    1.000
    C19      C        0.88366    0.84916    0.91892    1.000
    C20      C        0.86674    0.76744    0.84228    1.000
    C21      C        0.74073    0.71713    0.77806    1.000
    C22      C        0.63236    0.74856    0.79592    1.000
    C23      C        0.64821    0.83091    0.87202    1.000
    C24      C        0.79204    0.97294    0.01748    1.000
    C25      C        0.87143    0.98493    0.09926    1.000
    C26      C        0.87989    0.05909    0.18118    1.000
    C27      C        0.97375    0.06755    0.26450    1.000
    C28      C        0.11048    0.09558    0.28036    1.000
    C29      C        0.20025    0.09895    0.35470    1.000
    C30      C        0.15667    0.07607    0.41354    1.000
    C31      C        0.02087    0.05087    0.39874    1.000
    C32      C        0.93014    0.04684    0.32428    1.000
    C33      C        0.72172    0.63292    0.69084    1.000
    C34      C        0.25558    0.07788    0.49056    1.000
    C35      C        0.34148    0.94998    0.06496    1.000
    C36      C        0.46474    0.93024    0.08108    1.000
    C37      C        0.52446    0.92516    0.15772    1.000
    C38      C        0.46267    0.93907    0.22194    1.000
    C39      C        0.33644    0.95264    0.20408    1.000
    C40      C        0.27619    0.95889    0.12798    1.000
    C41      C        0.27456    0.95546    0.98252    1.000
    C42      C        0.27217    0.88567    0.90074    1.000
    C43      C        0.19871    0.87791    0.81882    1.000
    C44      C        0.20925    0.80305    0.73550    1.000
    C45      C        0.33012    0.81522    0.71964    1.000
    C46      C        0.34555    0.74425    0.64530    1.000
    C47      C        0.24313    0.66253    0.58646    1.000
    C48      C        0.12213    0.65213    0.60126    1.000
    C49      C        0.10586    0.72256    0.67572    1.000
    C50      C        0.53088    0.94208    0.30916    1.000
    C51      C        0.26502    0.58732    0.50944    1.000
    C52      C        0.22348    0.11498    0.06496    1.000
    C53      C        0.11634    0.15084    0.08108    1.000
    C54      C        0.13326    0.23256    0.15772    1.000
    C55      C        0.25927    0.28287    0.22194    1.000
    C56      C        0.36764    0.25144    0.20408    1.000
    C57      C        0.35179    0.16909    0.12798    1.000
    C58      C        0.20796    0.02706    0.98252    1.000
    C59      C        0.12857    0.01507    0.90074    1.000
    C60      C        0.12011    0.94091    0.81882    1.000
    C61      C        0.02625    0.93245    0.73550    1.000
    C62      C        0.88952    0.90442    0.71964    1.000
    C63      C        0.79975    0.90105    0.64530    1.000
    C64      C        0.84333    0.92393    0.58646    1.000
    C65      C        0.97913    0.94913    0.60126    1.000
    C66      C        0.06986    0.95316    0.67572    1.000
    C67      C        0.27828    0.36708    0.30916    1.000
    C68      C        0.74442    0.92212    0.50944    1.000
    O1       O        0.52256    0.03526    0.63272    1.000
    O2       O        0.35811    0.07871    0.68342    1.000
    O3       O        0.62253    0.40823    0.49646    1.000
    O4       O        0.83974    0.48304    0.54788    1.000
    O5       O        0.61016    0.59746    0.63272    1.000
    O6       O        0.82531    0.60471    0.68342    1.000
    O7       O        0.37393    0.08823    0.49646    1.000
    O8       O        0.20814    0.06484    0.54788    1.000
    O9       O        0.47744    0.96474    0.36728    1.000
    O10      O        0.64189    0.92129    0.31658    1.000
    O11      O        0.37747    0.59177    0.50354    1.000
    O12      O        0.16026    0.51696    0.45212    1.000
    O13      O        0.38984    0.40254    0.36728    1.000
    O14      O        0.17469    0.39529    0.31658    1.000
    O15      O        0.62607    0.91177    0.50354    1.000
    O16      O        0.79186    0.93516    0.45212    1.000
