# CIF file generated by openbabel 3.1.0, see https://openbabel.org
data_I
_chemical_name_common 'image0'
_cell_length_a 8.4787
_cell_length_b 15.2456
_cell_length_c 13.3806
_cell_angle_alpha 90
_cell_angle_beta 90
_cell_angle_gamma 90
_space_group_name_H-M_alt 'P 1'
_space_group_name_Hall 'P 1'
loop_
    _symmetry_equiv_pos_as_xyz
    x,y,z
loop_
    _atom_site_label
    _atom_site_type_symbol
    _atom_site_fract_x
    _atom_site_fract_y
    _atom_site_fract_z
    _atom_site_occupancy
    P1       P        0.02482    0.09831    0.88852    1.000
    H1       H        0.15600    0.08760    0.83970    1.000
    P2       P        0.25259    0.36997    0.77111    1.000
    H2       H        0.16300    0.44240    0.75660    1.000
    Be1      Be       0.46540    0.41170    0.60950    1.000
    O1       O        0.93700    0.17426    0.84023    1.000
    O2       O        0.06690    0.12166    0.99505    1.000
    O3       O        0.93190    0.01468    0.87943    1.000
    O4       O        0.14170    0.29540    0.79400    1.000
    O5       O        0.34390    0.35508    0.67627    1.000
    O6       O        0.35280    0.38701    0.86288    1.000
    P3       P        0.47518    0.40169    0.38852    1.000
    H3       H        0.34400    0.41240    0.33970    1.000
    P4       P        0.24741    0.13003    0.27111    1.000
    H4       H        0.33700    0.05760    0.25660    1.000
    Be2      Be       0.03460    0.08830    0.10950    1.000
    O7       O        0.56300    0.32574    0.34023    1.000
    O8       O        0.43310    0.37834    0.49505    1.000
    O9       O        0.56810    0.48532    0.37943    1.000
    O10      O        0.35830    0.20460    0.29400    1.000
    O11      O        0.15610    0.14492    0.17627    1.000
    O12      O        0.14720    0.11299    0.36288    1.000
    P5       P        0.97518    0.09831    0.61148    1.000
    H5       H        0.84400    0.08760    0.66030    1.000
    P6       P        0.74741    0.36997    0.72889    1.000
    H6       H        0.83700    0.44240    0.74340    1.000
    Be3      Be       0.53460    0.41170    0.89050    1.000
    O13      O        0.06300    0.17426    0.65977    1.000
    O14      O        0.93310    0.12166    0.50495    1.000
    O15      O        0.06810    0.01468    0.62057    1.000
    O16      O        0.85830    0.29540    0.70600    1.000
    O17      O        0.65610    0.35508    0.82373    1.000
    O18      O        0.64720    0.38701    0.63712    1.000
    P7       P        0.52482    0.40169    0.11148    1.000
    H7       H        0.65600    0.41240    0.16030    1.000
    P8       P        0.75259    0.13003    0.22889    1.000
    H8       H        0.66300    0.05760    0.24340    1.000
    Be4      Be       0.96540    0.08830    0.39050    1.000
    O19      O        0.43700    0.32574    0.15977    1.000
    O20      O        0.56690    0.37834    0.00495    1.000
    O21      O        0.43190    0.48532    0.12057    1.000
    O22      O        0.64170    0.20460    0.20600    1.000
    O23      O        0.84390    0.14492    0.32373    1.000
    O24      O        0.85280    0.11299    0.13712    1.000
    P9       P        0.97518    0.90169    0.11148    1.000
    H9       H        0.84400    0.91240    0.16030    1.000
    P10      P        0.74741    0.63003    0.22889    1.000
    H10      H        0.83700    0.55760    0.24340    1.000
    Be5      Be       0.53460    0.58830    0.39050    1.000
    O25      O        0.06300    0.82574    0.15977    1.000
    O26      O        0.93310    0.87834    0.00495    1.000
    O27      O        0.06810    0.98532    0.12057    1.000
    O28      O        0.85830    0.70460    0.20600    1.000
    O29      O        0.65610    0.64492    0.32373    1.000
    O30      O        0.64720    0.61299    0.13712    1.000
    P11      P        0.52482    0.59831    0.61148    1.000
    H11      H        0.65600    0.58760    0.66030    1.000
    P12      P        0.75259    0.86997    0.72889    1.000
    H12      H        0.66300    0.94240    0.74340    1.000
    Be6      Be       0.96540    0.91170    0.89050    1.000
    O31      O        0.43700    0.67426    0.65977    1.000
    O32      O        0.56690    0.62166    0.50495    1.000
    O33      O        0.43190    0.51468    0.62057    1.000
    O34      O        0.64170    0.79540    0.70600    1.000
    O35      O        0.84390    0.85508    0.82373    1.000
    O36      O        0.85280    0.88701    0.63712    1.000
    P13      P        0.02482    0.90169    0.38852    1.000
    H13      H        0.15600    0.91240    0.33970    1.000
    P14      P        0.25259    0.63003    0.27111    1.000
    H14      H        0.16300    0.55760    0.25660    1.000
    Be7      Be       0.46540    0.58830    0.10950    1.000
    O37      O        0.93700    0.82574    0.34023    1.000
    O38      O        0.06690    0.87834    0.49505    1.000
    O39      O        0.93190    0.98532    0.37943    1.000
    O40      O        0.14170    0.70460    0.29400    1.000
    O41      O        0.34390    0.64492    0.17627    1.000
    O42      O        0.35280    0.61299    0.36288    1.000
    P15      P        0.47518    0.59831    0.88852    1.000
    H15      H        0.34400    0.58760    0.83970    1.000
    P16      P        0.24741    0.86997    0.77111    1.000
    H16      H        0.33700    0.94240    0.75660    1.000
    Be8      Be       0.03460    0.91170    0.60950    1.000
    O43      O        0.56300    0.67426    0.84023    1.000
    O44      O        0.43310    0.62166    0.99505    1.000
    O45      O        0.56810    0.51468    0.87943    1.000
    O46      O        0.35830    0.79540    0.79400    1.000
    O47      O        0.15610    0.85508    0.67627    1.000
    O48      O        0.14720    0.88701    0.86288    1.000
    Be9      Be       0.00000    0.23770    0.75000    1.000
    Be10     Be       0.50000    0.26230    0.25000    1.000
    Be11     Be       0.00000    0.76230    0.25000    1.000
    Be12     Be       0.50000    0.73770    0.75000    1.000
