# CIF file generated by openbabel 3.1.0, see https://openbabel.org
data_I
_chemical_name_common 'image0'
_cell_length_a 21.866
_cell_length_b 7.6101
_cell_length_c 19.646
_cell_angle_alpha 90
_cell_angle_beta 90
_cell_angle_gamma 90
_space_group_name_H-M_alt 'P 1'
_space_group_name_Hall 'P 1'
loop_
    _symmetry_equiv_pos_as_xyz
    x,y,z
loop_
    _atom_site_label
    _atom_site_type_symbol
    _atom_site_fract_x
    _atom_site_fract_y
    _atom_site_fract_z
    _atom_site_occupancy
    O1       O        0.73898    0.19330    0.12004    1.000
    O2       O        0.63991    0.72420    0.07140    1.000
    O3       O        0.68206    0.99890    0.17106    1.000
    C1       C        0.62970    0.56310    0.06580    1.000
    C2       C        0.70970    0.29680    0.43670    1.000
    C3       C        0.56360    0.50670    0.06910    1.000
    H1       H        0.56130    0.38510    0.08370    1.000
    H2       H        0.54210    0.57800    0.10230    1.000
    C4       C        0.53333    0.52620    0.00000    1.000
    H3       H        0.55510    0.45430    0.96720    1.000
    H4       H        0.53670    0.64760    0.98540    1.000
    C5       C        0.69600    0.43480    0.38370    1.000
    H5       H        0.68310    0.54080    0.40700    1.000
    H6       H        0.73370    0.46200    0.35990    1.000
    C6       C        0.70310    0.15040    0.16890    1.000
    C7       C        0.64830    0.38960    0.33150    1.000
    H7       H        0.63040    0.49300    0.31060    1.000
    H8       H        0.61640    0.31440    0.34960    1.000
    O4       O        0.68082    0.15750    0.43896    1.000
    C8       C        0.69690    0.28000    0.27740    1.000
    C9       C        0.70300    0.28400    0.23280    1.000
    C10      C        0.65380    0.23480    0.28100    1.000
    C11      C        0.67830    0.29200    0.21440    1.000
    Tb1      Tb       0.71955    0.92517    0.05315    1.000
    O5       O        0.66934    0.44640    0.05362    1.000
    O6       O        0.75168    0.32850    0.48062    1.000
    O7       O        0.76102    0.30670    0.62004    1.000
    O8       O        0.86009    0.77580    0.57140    1.000
    O9       O        0.81794    0.50110    0.67106    1.000
    C12      C        0.87030    0.93690    0.56580    1.000
    C13      C        0.79030    0.20320    0.93670    1.000
    C14      C        0.93640    0.99330    0.56910    1.000
    H9       H        0.93870    0.11490    0.58370    1.000
    H10      H        0.95790    0.92200    0.60230    1.000
    C15      C        0.96667    0.97380    0.50000    1.000
    H11      H        0.94490    0.04570    0.46720    1.000
    H12      H        0.96330    0.85240    0.48540    1.000
    C16      C        0.80400    0.06520    0.88370    1.000
    H13      H        0.81690    0.95920    0.90700    1.000
    H14      H        0.76630    0.03800    0.85990    1.000
    C17      C        0.79690    0.34960    0.66890    1.000
    C18      C        0.85170    0.11040    0.83150    1.000
    H15      H        0.86960    0.00700    0.81060    1.000
    H16      H        0.88360    0.18560    0.84960    1.000
    O10      O        0.81918    0.34250    0.93896    1.000
    C19      C        0.80310    0.22000    0.77740    1.000
    C20      C        0.79700    0.21600    0.73280    1.000
    C21      C        0.84620    0.26520    0.78100    1.000
    C22      C        0.82170    0.20800    0.71440    1.000
    Tb2      Tb       0.78045    0.57483    0.55315    1.000
    O11      O        0.83066    0.05360    0.55362    1.000
    O12      O        0.74832    0.17150    0.98062    1.000
    O13      O        0.26102    0.19330    0.37996    1.000
    O14      O        0.36009    0.72420    0.42860    1.000
    O15      O        0.31794    0.99890    0.32894    1.000
    C23      C        0.37030    0.56310    0.43420    1.000
    C24      C        0.29030    0.29680    0.06330    1.000
    C25      C        0.43640    0.50670    0.43090    1.000
    H17      H        0.43870    0.38510    0.41630    1.000
    H18      H        0.45790    0.57800    0.39770    1.000
    C26      C        0.46667    0.52620    0.50000    1.000
    H19      H        0.44490    0.45430    0.53280    1.000
    H20      H        0.46330    0.64760    0.51460    1.000
    C27      C        0.30400    0.43480    0.11630    1.000
    H21      H        0.31690    0.54080    0.09300    1.000
    H22      H        0.26630    0.46200    0.14010    1.000
    C28      C        0.29690    0.15040    0.33110    1.000
    C29      C        0.35170    0.38960    0.16850    1.000
    H23      H        0.36960    0.49300    0.18940    1.000
    H24      H        0.38360    0.31440    0.15040    1.000
    O16      O        0.31918    0.15750    0.06104    1.000
    C30      C        0.30310    0.28000    0.22260    1.000
    C31      C        0.29700    0.28400    0.26720    1.000
    C32      C        0.34620    0.23480    0.21900    1.000
    C33      C        0.32170    0.29200    0.28560    1.000
    Tb3      Tb       0.28045    0.92517    0.44685    1.000
    O17      O        0.33066    0.44640    0.44638    1.000
    O18      O        0.24832    0.32850    0.01938    1.000
    O19      O        0.23898    0.30670    0.87996    1.000
    O20      O        0.13991    0.77580    0.92860    1.000
    O21      O        0.18206    0.50110    0.82894    1.000
    C34      C        0.12970    0.93690    0.93420    1.000
    C35      C        0.20970    0.20320    0.56330    1.000
    C36      C        0.06360    0.99330    0.93090    1.000
    H25      H        0.06130    0.11490    0.91630    1.000
    H26      H        0.04210    0.92200    0.89770    1.000
    C37      C        0.03333    0.97380    0.00000    1.000
    H27      H        0.05510    0.04570    0.03280    1.000
    H28      H        0.03670    0.85240    0.01460    1.000
    C38      C        0.19600    0.06520    0.61630    1.000
    H29      H        0.18310    0.95920    0.59300    1.000
    H30      H        0.23370    0.03800    0.64010    1.000
    C39      C        0.20310    0.34960    0.83110    1.000
    C40      C        0.14830    0.11040    0.66850    1.000
    H31      H        0.13040    0.00700    0.68940    1.000
    H32      H        0.11640    0.18560    0.65040    1.000
    O22      O        0.18082    0.34250    0.56104    1.000
    C41      C        0.19690    0.22000    0.72260    1.000
    C42      C        0.20300    0.21600    0.76720    1.000
    C43      C        0.15380    0.26520    0.71900    1.000
    C44      C        0.17830    0.20800    0.78560    1.000
    Tb4      Tb       0.21955    0.57483    0.94685    1.000
    O23      O        0.16934    0.05360    0.94638    1.000
    O24      O        0.25168    0.17150    0.51938    1.000
    O25      O        0.26102    0.80670    0.87996    1.000
    O26      O        0.36009    0.27580    0.92860    1.000
    O27      O        0.31794    0.00110    0.82894    1.000
    C45      C        0.37030    0.43690    0.93420    1.000
    C46      C        0.29030    0.70320    0.56330    1.000
    C47      C        0.43640    0.49330    0.93090    1.000
    H33      H        0.43870    0.61490    0.91630    1.000
    H34      H        0.45790    0.42200    0.89770    1.000
    C48      C        0.46667    0.47380    0.00000    1.000
    H35      H        0.44490    0.54570    0.03280    1.000
    H36      H        0.46330    0.35240    0.01460    1.000
    C49      C        0.30400    0.56520    0.61630    1.000
    H37      H        0.31690    0.45920    0.59300    1.000
    H38      H        0.26630    0.53800    0.64010    1.000
    C50      C        0.29690    0.84960    0.83110    1.000
    C51      C        0.35170    0.61040    0.66850    1.000
    H39      H        0.36960    0.50700    0.68940    1.000
    H40      H        0.38360    0.68560    0.65040    1.000
    O28      O        0.31918    0.84250    0.56104    1.000
    C52      C        0.30310    0.72000    0.72260    1.000
    C53      C        0.29700    0.71600    0.76720    1.000
    C54      C        0.34620    0.76520    0.71900    1.000
    C55      C        0.32170    0.70800    0.78560    1.000
    Tb5      Tb       0.28045    0.07483    0.94685    1.000
    O29      O        0.33066    0.55360    0.94638    1.000
    O30      O        0.24832    0.67150    0.51938    1.000
    O31      O        0.23898    0.69330    0.37996    1.000
    O32      O        0.13991    0.22420    0.42860    1.000
    O33      O        0.18206    0.49890    0.32894    1.000
    C56      C        0.12970    0.06310    0.43420    1.000
    C57      C        0.20970    0.79680    0.06330    1.000
    C58      C        0.06360    0.00670    0.43090    1.000
    H41      H        0.06130    0.88510    0.41630    1.000
    H42      H        0.04210    0.07800    0.39770    1.000
    C59      C        0.03333    0.02620    0.50000    1.000
    H43      H        0.05510    0.95430    0.53280    1.000
    H44      H        0.03670    0.14760    0.51460    1.000
    C60      C        0.19600    0.93480    0.11630    1.000
    H45      H        0.18310    0.04080    0.09300    1.000
    H46      H        0.23370    0.96200    0.14010    1.000
    C61      C        0.20310    0.65040    0.33110    1.000
    C62      C        0.14830    0.88960    0.16850    1.000
    H47      H        0.13040    0.99300    0.18940    1.000
    H48      H        0.11640    0.81440    0.15040    1.000
    O34      O        0.18082    0.65750    0.06104    1.000
    C63      C        0.19690    0.78000    0.22260    1.000
    C64      C        0.20300    0.78400    0.26720    1.000
    C65      C        0.15380    0.73480    0.21900    1.000
    C66      C        0.17830    0.79200    0.28560    1.000
    Tb6      Tb       0.21955    0.42517    0.44685    1.000
    O35      O        0.16934    0.94640    0.44638    1.000
    O36      O        0.25168    0.82850    0.01938    1.000
    O37      O        0.73898    0.80670    0.62004    1.000
    O38      O        0.63991    0.27580    0.57140    1.000
    O39      O        0.68206    0.00110    0.67106    1.000
    C67      C        0.62970    0.43690    0.56580    1.000
    C68      C        0.70970    0.70320    0.93670    1.000
    C69      C        0.56360    0.49330    0.56910    1.000
    H49      H        0.56130    0.61490    0.58370    1.000
    H50      H        0.54210    0.42200    0.60230    1.000
    C70      C        0.53333    0.47380    0.50000    1.000
    H51      H        0.55510    0.54570    0.46720    1.000
    H52      H        0.53670    0.35240    0.48540    1.000
    C71      C        0.69600    0.56520    0.88370    1.000
    H53      H        0.68310    0.45920    0.90700    1.000
    H54      H        0.73370    0.53800    0.85990    1.000
    C72      C        0.70310    0.84960    0.66890    1.000
    C73      C        0.64830    0.61040    0.83150    1.000
    H55      H        0.63040    0.50700    0.81060    1.000
    H56      H        0.61640    0.68560    0.84960    1.000
    O40      O        0.68082    0.84250    0.93896    1.000
    C74      C        0.69690    0.72000    0.77740    1.000
    C75      C        0.70300    0.71600    0.73280    1.000
    C76      C        0.65380    0.76520    0.78100    1.000
    C77      C        0.67830    0.70800    0.71440    1.000
    Tb7      Tb       0.71955    0.07483    0.55315    1.000
    O41      O        0.66934    0.55360    0.55362    1.000
    O42      O        0.75168    0.67150    0.98062    1.000
    O43      O        0.76102    0.69330    0.12004    1.000
    O44      O        0.86009    0.22420    0.07140    1.000
    O45      O        0.81794    0.49890    0.17106    1.000
    C78      C        0.87030    0.06310    0.06580    1.000
    C79      C        0.79030    0.79680    0.43670    1.000
    C80      C        0.93640    0.00670    0.06910    1.000
    H57      H        0.93870    0.88510    0.08370    1.000
    H58      H        0.95790    0.07800    0.10230    1.000
    C81      C        0.96667    0.02620    0.00000    1.000
    H59      H        0.94490    0.95430    0.96720    1.000
    H60      H        0.96330    0.14760    0.98540    1.000
    C82      C        0.80400    0.93480    0.38370    1.000
    H61      H        0.81690    0.04080    0.40700    1.000
    H62      H        0.76630    0.96200    0.35990    1.000
    C83      C        0.79690    0.65040    0.16890    1.000
    C84      C        0.85170    0.88960    0.33150    1.000
    H63      H        0.86960    0.99300    0.31060    1.000
    H64      H        0.88360    0.81440    0.34960    1.000
    O46      O        0.81918    0.65750    0.43896    1.000
    C85      C        0.80310    0.78000    0.27740    1.000
    C86      C        0.79700    0.78400    0.23280    1.000
    C87      C        0.84620    0.73480    0.28100    1.000
    C88      C        0.82170    0.79200    0.21440    1.000
    Tb8      Tb       0.78045    0.42517    0.05315    1.000
    O47      O        0.83066    0.94640    0.05362    1.000
    O48      O        0.74832    0.82850    0.48062    1.000
