# CIF file generated by openbabel 3.1.0, see https://openbabel.org
data_I
_chemical_name_common 'image0'
_cell_length_a 24.58
_cell_length_b 10.4454
_cell_length_c 22.4777
_cell_angle_alpha 90
_cell_angle_beta 98.322
_cell_angle_gamma 90
_space_group_name_H-M_alt 'P 1'
_space_group_name_Hall 'P 1'
loop_
    _symmetry_equiv_pos_as_xyz
    x,y,z
loop_
    _atom_site_label
    _atom_site_type_symbol
    _atom_site_fract_x
    _atom_site_fract_y
    _atom_site_fract_z
    _atom_site_occupancy
    W1       W        0.36112    0.68690    0.17895    1.000
    W2       W        0.54480    0.66486    0.10821    1.000
    W3       W        0.45818    0.43756    0.14310    1.000
    W4       W        0.44853    0.91431    0.14627    1.000
    Co1      Co       0.41040    0.44076    0.29176    1.000
    Co2      Co       0.40607    0.91184    0.28033    1.000
    O1       O        0.38170    0.82060    0.12620    1.000
    O2       O        0.34680    0.81840    0.23380    1.000
    O3       O        0.58760    0.78240    0.15740    1.000
    O4       O        0.41640    0.00390    0.20680    1.000
    O5       O        0.36990    0.57040    0.24530    1.000
    O6       O        0.59550    0.53390    0.13550    1.000
    O7       O        0.47340    0.35120    0.33510    1.000
    O8       O        0.48460    0.78260    0.10840    1.000
    O9       O        0.51800    0.58930    0.19610    1.000
    O10      O        0.43770    0.39120    0.21820    1.000
    O11      O        0.49210    0.53220    0.08340    1.000
    O12      O        0.51860    0.96130    0.18540    1.000
    O13      O        0.44810    0.76900    0.22240    1.000
    O14      O        0.40500    0.57090    0.14030    1.000
    O15      O        0.43830    0.02800    0.08930    1.000
    O16      O        0.56320    0.70410    0.03900    1.000
    O17      O        0.42260    0.32610    0.09650    1.000
    Cu1      Cu       0.43555    0.17184    0.02987    1.000
    N1       N        0.35780    0.13980    0.00360    1.000
    C1       C        0.32550    0.06150    0.03330    1.000
    H1       H        0.33620    0.02230    0.07030    1.000
    N2       N        0.27480    0.05130    0.99850    1.000
    C2       C        0.27560    0.12340    0.94740    1.000
    H2       H        0.24670    0.13330    0.91620    1.000
    C3       C        0.32690    0.17810    0.95050    1.000
    H3       H        0.33870    0.23150    0.92180    1.000
    C4       C        0.23110    0.97710    0.01360    1.000
    C5       C        0.17790    0.00980    0.98890    1.000
    H4       H        0.17130    0.08160    0.96450    1.000
    C6       C        0.23990    0.87220    0.05210    1.000
    H5       H        0.27550    0.85250    0.06980    1.000
    N3       N        0.01590    0.67590    0.04260    1.000
    C7       C        0.04670    0.78010    0.03460    1.000
    H6       H        0.03340    0.86080    0.02260    1.000
    N4       N        0.10030    0.74610    0.04700    1.000
    C8       C        0.10250    0.62100    0.06280    1.000
    H7       H        0.13440    0.57320    0.07360    1.000
    C9       C        0.05040    0.57760    0.06000    1.000
    H8       H        0.04000    0.49470    0.06860    1.000
    C10      C        0.14470    0.82810    0.03820    1.000
    C11      C        0.13550    0.93420    0.00110    1.000
    H9       H        0.09980    0.95440    0.98420    1.000
    C12      C        0.19790    0.79900    0.06400    1.000
    H10      H        0.20450    0.72890    0.08950    1.000
    W5       W        0.58960    0.44076    0.20824    1.000
    W6       W        0.59393    0.91184    0.21967    1.000
    W7       W        0.86112    0.18690    0.17895    1.000
    W8       W        0.04480    0.16486    0.10821    1.000
    W9       W        0.95818    0.93756    0.14310    1.000
    W10      W        0.94853    0.41431    0.14627    1.000
    Co3      Co       0.91040    0.94076    0.29176    1.000
    Co4      Co       0.90607    0.41184    0.28033    1.000
    O18      O        0.88170    0.32060    0.12620    1.000
    O19      O        0.84680    0.31840    0.23380    1.000
    O20      O        0.08760    0.28240    0.15740    1.000
    O21      O        0.91640    0.50390    0.20680    1.000
    O22      O        0.86990    0.07040    0.24530    1.000
    O23      O        0.09550    0.03390    0.13550    1.000
    O24      O        0.97340    0.85120    0.33510    1.000
    O25      O        0.98460    0.28260    0.10840    1.000
    O26      O        0.01800    0.08930    0.19610    1.000
    O27      O        0.93770    0.89120    0.21820    1.000
    O28      O        0.99210    0.03220    0.08340    1.000
    O29      O        0.01860    0.46130    0.18540    1.000
    O30      O        0.94810    0.26900    0.22240    1.000
    O31      O        0.90500    0.07090    0.14030    1.000
    O32      O        0.93830    0.52800    0.08930    1.000
    O33      O        0.06320    0.20410    0.03900    1.000
    O34      O        0.92260    0.82610    0.09650    1.000
    Cu2      Cu       0.93555    0.67184    0.02987    1.000
    N5       N        0.85780    0.63980    0.00360    1.000
    C13      C        0.82550    0.56150    0.03330    1.000
    H11      H        0.83620    0.52230    0.07030    1.000
    N6       N        0.77480    0.55130    0.99850    1.000
    C14      C        0.77560    0.62340    0.94740    1.000
    H12      H        0.74670    0.63330    0.91620    1.000
    C15      C        0.82690    0.67810    0.95050    1.000
    H13      H        0.83870    0.73150    0.92180    1.000
    C16      C        0.73110    0.47710    0.01360    1.000
    C17      C        0.67790    0.50980    0.98890    1.000
    H14      H        0.67130    0.58160    0.96450    1.000
    C18      C        0.73990    0.37220    0.05210    1.000
    H15      H        0.77550    0.35250    0.06980    1.000
    N7       N        0.51590    0.17590    0.04260    1.000
    C19      C        0.54670    0.28010    0.03460    1.000
    H16      H        0.53340    0.36080    0.02260    1.000
    N8       N        0.60030    0.24610    0.04700    1.000
    C20      C        0.60250    0.12100    0.06280    1.000
    H17      H        0.63440    0.07320    0.07360    1.000
    C21      C        0.55040    0.07760    0.06000    1.000
    H18      H        0.54000    0.99470    0.06860    1.000
    C22      C        0.64470    0.32810    0.03820    1.000
    C23      C        0.63550    0.43420    0.00110    1.000
    H19      H        0.59980    0.45440    0.98420    1.000
    C24      C        0.69790    0.29900    0.06400    1.000
    H20      H        0.70450    0.22890    0.08950    1.000
    W11      W        0.08960    0.94076    0.20824    1.000
    W12      W        0.09393    0.41184    0.21967    1.000
    W13      W        0.63888    0.68690    0.32105    1.000
    W14      W        0.45520    0.66486    0.39179    1.000
    W15      W        0.54182    0.43756    0.35690    1.000
    W16      W        0.55147    0.91431    0.35373    1.000
    O35      O        0.61830    0.82060    0.37380    1.000
    O36      O        0.65320    0.81840    0.26620    1.000
    O37      O        0.41240    0.78240    0.34260    1.000
    O38      O        0.58360    0.00390    0.29320    1.000
    O39      O        0.63010    0.57040    0.25470    1.000
    O40      O        0.40450    0.53390    0.36450    1.000
    O41      O        0.52660    0.35120    0.16490    1.000
    O42      O        0.51540    0.78260    0.39160    1.000
    O43      O        0.48200    0.58930    0.30390    1.000
    O44      O        0.56230    0.39120    0.28180    1.000
    O45      O        0.50790    0.53220    0.41660    1.000
    O46      O        0.48140    0.96130    0.31460    1.000
    O47      O        0.55190    0.76900    0.27760    1.000
    O48      O        0.59500    0.57090    0.35970    1.000
    O49      O        0.56170    0.02800    0.41070    1.000
    O50      O        0.43680    0.70410    0.46100    1.000
    O51      O        0.57740    0.32610    0.40350    1.000
    Cu3      Cu       0.56445    0.17184    0.47013    1.000
    N9       N        0.64220    0.13980    0.49640    1.000
    C25      C        0.67450    0.06150    0.46670    1.000
    H21      H        0.66380    0.02230    0.42970    1.000
    N10      N        0.72520    0.05130    0.50150    1.000
    C26      C        0.72440    0.12340    0.55260    1.000
    H22      H        0.75330    0.13330    0.58380    1.000
    C27      C        0.67310    0.17810    0.54950    1.000
    H23      H        0.66130    0.23150    0.57820    1.000
    C28      C        0.76890    0.97710    0.48640    1.000
    C29      C        0.82210    0.00980    0.51110    1.000
    H24      H        0.82870    0.08160    0.53550    1.000
    C30      C        0.76010    0.87220    0.44790    1.000
    H25      H        0.72450    0.85250    0.43020    1.000
    N11      N        0.98410    0.67590    0.45740    1.000
    C31      C        0.95330    0.78010    0.46540    1.000
    H26      H        0.96660    0.86080    0.47740    1.000
    N12      N        0.89970    0.74610    0.45300    1.000
    C32      C        0.89750    0.62100    0.43720    1.000
    H27      H        0.86560    0.57320    0.42640    1.000
    C33      C        0.94960    0.57760    0.44000    1.000
    H28      H        0.96000    0.49470    0.43140    1.000
    C34      C        0.85530    0.82810    0.46180    1.000
    C35      C        0.86450    0.93420    0.49890    1.000
    H29      H        0.90020    0.95440    0.51580    1.000
    C36      C        0.80210    0.79900    0.43600    1.000
    H30      H        0.79550    0.72890    0.41050    1.000
    W17      W        0.13888    0.18690    0.32105    1.000
    W18      W        0.95520    0.16486    0.39179    1.000
    W19      W        0.04182    0.93756    0.35690    1.000
    W20      W        0.05147    0.41431    0.35373    1.000
    O52      O        0.11830    0.32060    0.37380    1.000
    O53      O        0.15320    0.31840    0.26620    1.000
    O54      O        0.91240    0.28240    0.34260    1.000
    O55      O        0.08360    0.50390    0.29320    1.000
    O56      O        0.13010    0.07040    0.25470    1.000
    O57      O        0.90450    0.03390    0.36450    1.000
    O58      O        0.02660    0.85120    0.16490    1.000
    O59      O        0.01540    0.28260    0.39160    1.000
    O60      O        0.98200    0.08930    0.30390    1.000
    O61      O        0.06230    0.89120    0.28180    1.000
    O62      O        0.00790    0.03220    0.41660    1.000
    O63      O        0.98140    0.46130    0.31460    1.000
    O64      O        0.05190    0.26900    0.27760    1.000
    O65      O        0.09500    0.07090    0.35970    1.000
    O66      O        0.06170    0.52800    0.41070    1.000
    O67      O        0.93680    0.20410    0.46100    1.000
    O68      O        0.07740    0.82610    0.40350    1.000
    Cu4      Cu       0.06445    0.67184    0.47013    1.000
    N13      N        0.14220    0.63980    0.49640    1.000
    C37      C        0.17450    0.56150    0.46670    1.000
    H31      H        0.16380    0.52230    0.42970    1.000
    N14      N        0.22520    0.55130    0.50150    1.000
    C38      C        0.22440    0.62340    0.55260    1.000
    H32      H        0.25330    0.63330    0.58380    1.000
    C39      C        0.17310    0.67810    0.54950    1.000
    H33      H        0.16130    0.73150    0.57820    1.000
    C40      C        0.26890    0.47710    0.48640    1.000
    C41      C        0.32210    0.50980    0.51110    1.000
    H34      H        0.32870    0.58160    0.53550    1.000
    C42      C        0.26010    0.37220    0.44790    1.000
    H35      H        0.22450    0.35250    0.43020    1.000
    N15      N        0.48410    0.17590    0.45740    1.000
    C43      C        0.45330    0.28010    0.46540    1.000
    H36      H        0.46660    0.36080    0.47740    1.000
    N16      N        0.39970    0.24610    0.45300    1.000
    C44      C        0.39750    0.12100    0.43720    1.000
    H37      H        0.36560    0.07320    0.42640    1.000
    C45      C        0.44960    0.07760    0.44000    1.000
    H38      H        0.46000    0.99470    0.43140    1.000
    C46      C        0.35530    0.32810    0.46180    1.000
    C47      C        0.36450    0.43420    0.49890    1.000
    H39      H        0.40020    0.45440    0.51580    1.000
    C48      C        0.30210    0.29900    0.43600    1.000
    H40      H        0.29550    0.22890    0.41050    1.000
    W21      W        0.63888    0.31310    0.82105    1.000
    W22      W        0.45520    0.33514    0.89179    1.000
    W23      W        0.54182    0.56244    0.85690    1.000
    W24      W        0.55147    0.08569    0.85373    1.000
    Co5      Co       0.58960    0.55924    0.70824    1.000
    Co6      Co       0.59393    0.08816    0.71967    1.000
    O69      O        0.61830    0.17940    0.87380    1.000
    O70      O        0.65320    0.18160    0.76620    1.000
    O71      O        0.41240    0.21760    0.84260    1.000
    O72      O        0.58360    0.99610    0.79320    1.000
    O73      O        0.63010    0.42960    0.75470    1.000
    O74      O        0.40450    0.46610    0.86450    1.000
    O75      O        0.52660    0.64880    0.66490    1.000
    O76      O        0.51540    0.21740    0.89160    1.000
    O77      O        0.48200    0.41070    0.80390    1.000
    O78      O        0.56230    0.60880    0.78180    1.000
    O79      O        0.50790    0.46780    0.91660    1.000
    O80      O        0.48140    0.03870    0.81460    1.000
    O81      O        0.55190    0.23100    0.77760    1.000
    O82      O        0.59500    0.42910    0.85970    1.000
    O83      O        0.56170    0.97200    0.91070    1.000
    O84      O        0.43680    0.29590    0.96100    1.000
    O85      O        0.57740    0.67390    0.90350    1.000
    Cu5      Cu       0.56445    0.82816    0.97013    1.000
    N17      N        0.64220    0.86020    0.99640    1.000
    C49      C        0.67450    0.93850    0.96670    1.000
    H41      H        0.66380    0.97770    0.92970    1.000
    N18      N        0.72520    0.94870    0.00150    1.000
    C50      C        0.72440    0.87660    0.05260    1.000
    H42      H        0.75330    0.86670    0.08380    1.000
    C51      C        0.67310    0.82190    0.04950    1.000
    H43      H        0.66130    0.76850    0.07820    1.000
    C52      C        0.76890    0.02290    0.98640    1.000
    C53      C        0.82210    0.99020    0.01110    1.000
    H44      H        0.82870    0.91840    0.03550    1.000
    C54      C        0.76010    0.12780    0.94790    1.000
    H45      H        0.72450    0.14750    0.93020    1.000
    N19      N        0.98410    0.32410    0.95740    1.000
    C55      C        0.95330    0.21990    0.96540    1.000
    H46      H        0.96660    0.13920    0.97740    1.000
    N20      N        0.89970    0.25390    0.95300    1.000
    C56      C        0.89750    0.37900    0.93720    1.000
    H47      H        0.86560    0.42680    0.92640    1.000
    C57      C        0.94960    0.42240    0.94000    1.000
    H48      H        0.96000    0.50530    0.93140    1.000
    C58      C        0.85530    0.17190    0.96180    1.000
    C59      C        0.86450    0.06580    0.99890    1.000
    H49      H        0.90020    0.04560    0.01580    1.000
    C60      C        0.80210    0.20100    0.93600    1.000
    H50      H        0.79550    0.27110    0.91050    1.000
    W25      W        0.41040    0.55924    0.79176    1.000
    W26      W        0.40607    0.08816    0.78033    1.000
    W27      W        0.13888    0.81310    0.82105    1.000
    W28      W        0.95520    0.83514    0.89179    1.000
    W29      W        0.04182    0.06244    0.85690    1.000
    W30      W        0.05147    0.58569    0.85373    1.000
    Co7      Co       0.08960    0.05924    0.70824    1.000
    Co8      Co       0.09393    0.58816    0.71967    1.000
    O86      O        0.11830    0.67940    0.87380    1.000
    O87      O        0.15320    0.68160    0.76620    1.000
    O88      O        0.91240    0.71760    0.84260    1.000
    O89      O        0.08360    0.49610    0.79320    1.000
    O90      O        0.13010    0.92960    0.75470    1.000
    O91      O        0.90450    0.96610    0.86450    1.000
    O92      O        0.02660    0.14880    0.66490    1.000
    O93      O        0.01540    0.71740    0.89160    1.000
    O94      O        0.98200    0.91070    0.80390    1.000
    O95      O        0.06230    0.10880    0.78180    1.000
    O96      O        0.00790    0.96780    0.91660    1.000
    O97      O        0.98140    0.53870    0.81460    1.000
    O98      O        0.05190    0.73100    0.77760    1.000
    O99      O        0.09500    0.92910    0.85970    1.000
    O100     O        0.06170    0.47200    0.91070    1.000
    O101     O        0.93680    0.79590    0.96100    1.000
    O102     O        0.07740    0.17390    0.90350    1.000
    Cu6      Cu       0.06445    0.32816    0.97013    1.000
    N21      N        0.14220    0.36020    0.99640    1.000
    C61      C        0.17450    0.43850    0.96670    1.000
    H51      H        0.16380    0.47770    0.92970    1.000
    N22      N        0.22520    0.44870    0.00150    1.000
    C62      C        0.22440    0.37660    0.05260    1.000
    H52      H        0.25330    0.36670    0.08380    1.000
    C63      C        0.17310    0.32190    0.04950    1.000
    H53      H        0.16130    0.26850    0.07820    1.000
    C64      C        0.26890    0.52290    0.98640    1.000
    C65      C        0.32210    0.49020    0.01110    1.000
    H54      H        0.32870    0.41840    0.03550    1.000
    C66      C        0.26010    0.62780    0.94790    1.000
    H55      H        0.22450    0.64750    0.93020    1.000
    N23      N        0.48410    0.82410    0.95740    1.000
    C67      C        0.45330    0.71990    0.96540    1.000
    H56      H        0.46660    0.63920    0.97740    1.000
    N24      N        0.39970    0.75390    0.95300    1.000
    C68      C        0.39750    0.87900    0.93720    1.000
    H57      H        0.36560    0.92680    0.92640    1.000
    C69      C        0.44960    0.92240    0.94000    1.000
    H58      H        0.46000    0.00530    0.93140    1.000
    C70      C        0.35530    0.67190    0.96180    1.000
    C71      C        0.36450    0.56580    0.99890    1.000
    H59      H        0.40020    0.54560    0.01580    1.000
    C72      C        0.30210    0.70100    0.93600    1.000
    H60      H        0.29550    0.77110    0.91050    1.000
    W31      W        0.91040    0.05924    0.79176    1.000
    W32      W        0.90607    0.58816    0.78033    1.000
    W33      W        0.36112    0.31310    0.67895    1.000
    W34      W        0.54480    0.33514    0.60821    1.000
    W35      W        0.45818    0.56244    0.64310    1.000
    W36      W        0.44853    0.08569    0.64627    1.000
    O103     O        0.38170    0.17940    0.62620    1.000
    O104     O        0.34680    0.18160    0.73380    1.000
    O105     O        0.58760    0.21760    0.65740    1.000
    O106     O        0.41640    0.99610    0.70680    1.000
    O107     O        0.36990    0.42960    0.74530    1.000
    O108     O        0.59550    0.46610    0.63550    1.000
    O109     O        0.47340    0.64880    0.83510    1.000
    O110     O        0.48460    0.21740    0.60840    1.000
    O111     O        0.51800    0.41070    0.69610    1.000
    O112     O        0.43770    0.60880    0.71820    1.000
    O113     O        0.49210    0.46780    0.58340    1.000
    O114     O        0.51860    0.03870    0.68540    1.000
    O115     O        0.44810    0.23100    0.72240    1.000
    O116     O        0.40500    0.42910    0.64030    1.000
    O117     O        0.43830    0.97200    0.58930    1.000
    O118     O        0.56320    0.29590    0.53900    1.000
    O119     O        0.42260    0.67390    0.59650    1.000
    Cu7      Cu       0.43555    0.82816    0.52987    1.000
    N25      N        0.35780    0.86020    0.50360    1.000
    C73      C        0.32550    0.93850    0.53330    1.000
    H61      H        0.33620    0.97770    0.57030    1.000
    N26      N        0.27480    0.94870    0.49850    1.000
    C74      C        0.27560    0.87660    0.44740    1.000
    H62      H        0.24670    0.86670    0.41620    1.000
    C75      C        0.32690    0.82190    0.45050    1.000
    H63      H        0.33870    0.76850    0.42180    1.000
    C76      C        0.23110    0.02290    0.51360    1.000
    C77      C        0.17790    0.99020    0.48890    1.000
    H64      H        0.17130    0.91840    0.46450    1.000
    C78      C        0.23990    0.12780    0.55210    1.000
    H65      H        0.27550    0.14750    0.56980    1.000
    N27      N        0.01590    0.32410    0.54260    1.000
    C79      C        0.04670    0.21990    0.53460    1.000
    H66      H        0.03340    0.13920    0.52260    1.000
    N28      N        0.10030    0.25390    0.54700    1.000
    C80      C        0.10250    0.37900    0.56280    1.000
    H67      H        0.13440    0.42680    0.57360    1.000
    C81      C        0.05040    0.42240    0.56000    1.000
    H68      H        0.04000    0.50530    0.56860    1.000
    C82      C        0.14470    0.17190    0.53820    1.000
    C83      C        0.13550    0.06580    0.50110    1.000
    H69      H        0.09980    0.04560    0.48420    1.000
    C84      C        0.19790    0.20100    0.56400    1.000
    H70      H        0.20450    0.27110    0.58950    1.000
    W37      W        0.86112    0.81310    0.67895    1.000
    W38      W        0.04480    0.83514    0.60821    1.000
    W39      W        0.95818    0.06244    0.64310    1.000
    W40      W        0.94853    0.58569    0.64627    1.000
    O120     O        0.88170    0.67940    0.62620    1.000
    O121     O        0.84680    0.68160    0.73380    1.000
    O122     O        0.08760    0.71760    0.65740    1.000
    O123     O        0.91640    0.49610    0.70680    1.000
    O124     O        0.86990    0.92960    0.74530    1.000
    O125     O        0.09550    0.96610    0.63550    1.000
    O126     O        0.97340    0.14880    0.83510    1.000
    O127     O        0.98460    0.71740    0.60840    1.000
    O128     O        0.01800    0.91070    0.69610    1.000
    O129     O        0.93770    0.10880    0.71820    1.000
    O130     O        0.99210    0.96780    0.58340    1.000
    O131     O        0.01860    0.53870    0.68540    1.000
    O132     O        0.94810    0.73100    0.72240    1.000
    O133     O        0.90500    0.92910    0.64030    1.000
    O134     O        0.93830    0.47200    0.58930    1.000
    O135     O        0.06320    0.79590    0.53900    1.000
    O136     O        0.92260    0.17390    0.59650    1.000
    Cu8      Cu       0.93555    0.32816    0.52987    1.000
    N29      N        0.85780    0.36020    0.50360    1.000
    C85      C        0.82550    0.43850    0.53330    1.000
    H71      H        0.83620    0.47770    0.57030    1.000
    N30      N        0.77480    0.44870    0.49850    1.000
    C86      C        0.77560    0.37660    0.44740    1.000
    H72      H        0.74670    0.36670    0.41620    1.000
    C87      C        0.82690    0.32190    0.45050    1.000
    H73      H        0.83870    0.26850    0.42180    1.000
    C88      C        0.73110    0.52290    0.51360    1.000
    C89      C        0.67790    0.49020    0.48890    1.000
    H74      H        0.67130    0.41840    0.46450    1.000
    C90      C        0.73990    0.62780    0.55210    1.000
    H75      H        0.77550    0.64750    0.56980    1.000
    N31      N        0.51590    0.82410    0.54260    1.000
    C91      C        0.54670    0.71990    0.53460    1.000
    H76      H        0.53340    0.63920    0.52260    1.000
    N32      N        0.60030    0.75390    0.54700    1.000
    C92      C        0.60250    0.87900    0.56280    1.000
    H77      H        0.63440    0.92680    0.57360    1.000
    C93      C        0.55040    0.92240    0.56000    1.000
    H78      H        0.54000    0.00530    0.56860    1.000
    C94      C        0.64470    0.67190    0.53820    1.000
    C95      C        0.63550    0.56580    0.50110    1.000
    H79      H        0.59980    0.54560    0.48420    1.000
    C96      C        0.69790    0.70100    0.56400    1.000
    H80      H        0.70450    0.77110    0.58950    1.000
    Si1      Si       0.50000    0.67910    0.25000    1.000
    K1       K        0.50000    0.17620    0.25000    1.000
    Si2      Si       0.00000    0.17910    0.25000    1.000
    K2       K        0.00000    0.67620    0.25000    1.000
    Si3      Si       0.50000    0.32090    0.75000    1.000
    K3       K        0.50000    0.82380    0.75000    1.000
    Si4      Si       0.00000    0.82090    0.75000    1.000
    K4       K        0.00000    0.32380    0.75000    1.000
