# CIF file generated by openbabel 3.1.0, see https://openbabel.org
data_I
_chemical_name_common 'image0'
_cell_length_a 6.0617
_cell_length_b 23.528
_cell_length_c 13.3601
_cell_angle_alpha 90
_cell_angle_beta 112.658
_cell_angle_gamma 90
_space_group_name_H-M_alt 'P 1'
_space_group_name_Hall 'P 1'
loop_
    _symmetry_equiv_pos_as_xyz
    x,y,z
loop_
    _atom_site_label
    _atom_site_type_symbol
    _atom_site_fract_x
    _atom_site_fract_y
    _atom_site_fract_z
    _atom_site_occupancy
    Lu1      Lu       0.40019    0.67003    0.39033    1.000
    O1       O        0.46870    0.74969    0.30900    1.000
    O2       O        0.36280    0.82669    0.20470    1.000
    O3       O        0.81160    0.83724    0.93120    1.000
    O4       O        0.16430    0.79357    0.97800    1.000
    O5       O        0.50430    0.56220    0.14760    1.000
    O6       O        0.40150    0.62686    0.24310    1.000
    O7       O        0.13750    0.50480    0.22880    1.000
    O8       O        0.79050    0.47160    0.11390    1.000
    N1       N        0.02170    0.71171    0.22970    1.000
    N2       N        0.68280    0.75630    0.04000    1.000
    N3       N        0.06890    0.63940    0.00580    1.000
    N4       N        0.71980    0.55950    0.98530    1.000
    C1       C        0.32610    0.77850    0.23200    1.000
    C2       C        0.08120    0.75200    0.17270    1.000
    C3       C        0.91620    0.77010    0.07260    1.000
    C4       C        0.97280    0.80400    0.98850    1.000
    C5       C        0.62530    0.71750    0.09820    1.000
    H1       H        0.46650    0.70650    0.07720    1.000
    C6       C        0.79760    0.69310    0.18960    1.000
    H2       H        0.75500    0.66310    0.22360    1.000
    C7       C        0.35870    0.59370    0.16340    1.000
    C8       C        0.10920    0.59650    0.07660    1.000
    C9       C        0.93290    0.55640    0.06720    1.000
    C10      C        0.96030    0.50780    0.14470    1.000
    C11      C        0.67730    0.60100    0.91380    1.000
    H3       H        0.52960    0.60340    0.85620    1.000
    C12      C        0.85420    0.64110    0.92470    1.000
    H4       H        0.82160    0.67010    0.87370    1.000
    Lu2      Lu       0.59981    0.17003    0.10967    1.000
    O9       O        0.53130    0.24969    0.19100    1.000
    O10      O        0.63720    0.32669    0.29530    1.000
    O11      O        0.18840    0.33724    0.56880    1.000
    O12      O        0.83570    0.29357    0.52200    1.000
    O13      O        0.49570    0.06220    0.35240    1.000
    O14      O        0.59850    0.12686    0.25690    1.000
    O15      O        0.86250    0.00480    0.27120    1.000
    O16      O        0.20950    0.97160    0.38610    1.000
    N5       N        0.97830    0.21171    0.27030    1.000
    N6       N        0.31720    0.25630    0.46000    1.000
    N7       N        0.93110    0.13940    0.49420    1.000
    N8       N        0.28020    0.05950    0.51470    1.000
    C13      C        0.67390    0.27850    0.26800    1.000
    C14      C        0.91880    0.25200    0.32730    1.000
    C15      C        0.08380    0.27010    0.42740    1.000
    C16      C        0.02720    0.30400    0.51150    1.000
    C17      C        0.37470    0.21750    0.40180    1.000
    H5       H        0.53350    0.20650    0.42280    1.000
    C18      C        0.20240    0.19310    0.31040    1.000
    H6       H        0.24500    0.16310    0.27640    1.000
    C19      C        0.64130    0.09370    0.33660    1.000
    C20      C        0.89080    0.09650    0.42340    1.000
    C21      C        0.06710    0.05640    0.43280    1.000
    C22      C        0.03970    0.00780    0.35530    1.000
    C23      C        0.32270    0.10100    0.58620    1.000
    H7       H        0.47040    0.10340    0.64380    1.000
    C24      C        0.14580    0.14110    0.57530    1.000
    H8       H        0.17840    0.17010    0.62630    1.000
    Lu3      Lu       0.59981    0.32997    0.60967    1.000
    O17      O        0.53130    0.25031    0.69100    1.000
    O18      O        0.63720    0.17331    0.79530    1.000
    O19      O        0.18840    0.16276    0.06880    1.000
    O20      O        0.83570    0.20643    0.02200    1.000
    O21      O        0.49570    0.43780    0.85240    1.000
    O22      O        0.59850    0.37314    0.75690    1.000
    O23      O        0.86250    0.49520    0.77120    1.000
    O24      O        0.20950    0.52840    0.88610    1.000
    N9       N        0.97830    0.28829    0.77030    1.000
    N10      N        0.31720    0.24370    0.96000    1.000
    N11      N        0.93110    0.36060    0.99420    1.000
    N12      N        0.28020    0.44050    0.01470    1.000
    C25      C        0.67390    0.22150    0.76800    1.000
    C26      C        0.91880    0.24800    0.82730    1.000
    C27      C        0.08380    0.22990    0.92740    1.000
    C28      C        0.02720    0.19600    0.01150    1.000
    C29      C        0.37470    0.28250    0.90180    1.000
    H9       H        0.53350    0.29350    0.92280    1.000
    C30      C        0.20240    0.30690    0.81040    1.000
    H10      H        0.24500    0.33690    0.77640    1.000
    C31      C        0.64130    0.40630    0.83660    1.000
    C32      C        0.89080    0.40350    0.92340    1.000
    C33      C        0.06710    0.44360    0.93280    1.000
    C34      C        0.03970    0.49220    0.85530    1.000
    C35      C        0.32270    0.39900    0.08620    1.000
    H11      H        0.47040    0.39660    0.14380    1.000
    C36      C        0.14580    0.35890    0.07530    1.000
    H12      H        0.17840    0.32990    0.12630    1.000
    Lu4      Lu       0.40019    0.82997    0.89033    1.000
    O25      O        0.46870    0.75031    0.80900    1.000
    O26      O        0.36280    0.67331    0.70470    1.000
    O27      O        0.81160    0.66276    0.43120    1.000
    O28      O        0.16430    0.70643    0.47800    1.000
    O29      O        0.50430    0.93780    0.64760    1.000
    O30      O        0.40150    0.87314    0.74310    1.000
    O31      O        0.13750    0.99520    0.72880    1.000
    O32      O        0.79050    0.02840    0.61390    1.000
    N13      N        0.02170    0.78829    0.72970    1.000
    N14      N        0.68280    0.74370    0.54000    1.000
    N15      N        0.06890    0.86060    0.50580    1.000
    N16      N        0.71980    0.94050    0.48530    1.000
    C37      C        0.32610    0.72150    0.73200    1.000
    C38      C        0.08120    0.74800    0.67270    1.000
    C39      C        0.91620    0.72990    0.57260    1.000
    C40      C        0.97280    0.69600    0.48850    1.000
    C41      C        0.62530    0.78250    0.59820    1.000
    H13      H        0.46650    0.79350    0.57720    1.000
    C42      C        0.79760    0.80690    0.68960    1.000
    H14      H        0.75500    0.83690    0.72360    1.000
    C43      C        0.35870    0.90630    0.66340    1.000
    C44      C        0.10920    0.90350    0.57660    1.000
    C45      C        0.93290    0.94360    0.56720    1.000
    C46      C        0.96030    0.99220    0.64470    1.000
    C47      C        0.67730    0.89900    0.41380    1.000
    H15      H        0.52960    0.89660    0.35620    1.000
    C48      C        0.85420    0.85890    0.42470    1.000
    H16      H        0.82160    0.82990    0.37370    1.000
    Cu1      Cu       0.50000    0.50000    0.00000    1.000
    Cu2      Cu       0.50000    0.00000    0.50000    1.000
