# CIF file generated by openbabel 3.1.0, see https://openbabel.org
data_I
_chemical_name_common 'image0'
_cell_length_a 24.338
_cell_length_b 9.4877
_cell_length_c 16.502
_cell_angle_alpha 90
_cell_angle_beta 119.89
_cell_angle_gamma 90
_space_group_name_H-M_alt 'P 1'
_space_group_name_Hall 'P 1'
loop_
    _symmetry_equiv_pos_as_xyz
    x,y,z
loop_
    _atom_site_label
    _atom_site_type_symbol
    _atom_site_fract_x
    _atom_site_fract_y
    _atom_site_fract_z
    _atom_site_occupancy
    Cu1      Cu       0.04272    0.82361    0.03963    1.000
    Cu2      Cu       0.95720    0.61493    0.12225    1.000
    N1       N        0.86306    0.98230    0.97063    1.000
    N2       N        0.92087    0.99350    0.97845    1.000
    N3       N        0.95359    0.87890    0.01690    1.000
    N4       N        0.91801    0.78970    0.03613    1.000
    N5       N        0.91764    0.68220    0.20098    1.000
    N6       N        0.95187    0.69890    0.29279    1.000
    N7       N        0.91779    0.76450    0.32342    1.000
    N8       N        0.86000    0.79130    0.25217    1.000
    C1       C        0.04375    0.66860    0.96414    1.000
    C2       C        0.74918    0.69790    0.07708    1.000
    H1       H        0.74920    0.66250    0.12960    1.000
    C3       C        0.80603    0.74380    0.08491    1.000
    C4       C        0.80715    0.79630    0.00681    1.000
    C5       C        0.86330    0.85550    0.00706    1.000
    C6       C        0.86185    0.74010    0.17876    1.000
    N9       N        0.04457    0.56660    0.92933    1.000
    Cu3      Cu       0.54272    0.32361    0.03963    1.000
    Cu4      Cu       0.45720    0.11493    0.12225    1.000
    N10      N        0.36306    0.48230    0.97063    1.000
    N11      N        0.42087    0.49350    0.97845    1.000
    N12      N        0.45359    0.37890    0.01690    1.000
    N13      N        0.41801    0.28970    0.03613    1.000
    N14      N        0.41764    0.18220    0.20098    1.000
    N15      N        0.45187    0.19890    0.29279    1.000
    N16      N        0.41779    0.26450    0.32342    1.000
    N17      N        0.36000    0.29130    0.25217    1.000
    C7       C        0.54375    0.16860    0.96414    1.000
    C8       C        0.24918    0.19790    0.07708    1.000
    H2       H        0.24920    0.16250    0.12960    1.000
    C9       C        0.30603    0.24380    0.08491    1.000
    C10      C        0.30715    0.29630    0.00681    1.000
    C11      C        0.36330    0.35550    0.00706    1.000
    C12      C        0.36185    0.24010    0.17876    1.000
    N18      N        0.54457    0.06660    0.92933    1.000
    Cu5      Cu       0.95728    0.82361    0.46037    1.000
    Cu6      Cu       0.04280    0.61493    0.37775    1.000
    N19      N        0.13694    0.98230    0.52937    1.000
    N20      N        0.07913    0.99350    0.52155    1.000
    N21      N        0.04641    0.87890    0.48310    1.000
    N22      N        0.08199    0.78970    0.46387    1.000
    N23      N        0.08236    0.68220    0.29902    1.000
    N24      N        0.04813    0.69890    0.20721    1.000
    N25      N        0.08221    0.76450    0.17658    1.000
    N26      N        0.14000    0.79130    0.24783    1.000
    C13      C        0.95625    0.66860    0.53586    1.000
    C14      C        0.25082    0.69790    0.42292    1.000
    H3       H        0.25080    0.66250    0.37040    1.000
    C15      C        0.19397    0.74380    0.41509    1.000
    C16      C        0.19285    0.79630    0.49319    1.000
    C17      C        0.13670    0.85550    0.49294    1.000
    C18      C        0.13815    0.74010    0.32124    1.000
    N27      N        0.95543    0.56660    0.57067    1.000
    Cu7      Cu       0.45728    0.32361    0.46037    1.000
    Cu8      Cu       0.54280    0.11493    0.37775    1.000
    N28      N        0.63694    0.48230    0.52937    1.000
    N29      N        0.57913    0.49350    0.52155    1.000
    N30      N        0.54641    0.37890    0.48310    1.000
    N31      N        0.58199    0.28970    0.46387    1.000
    N32      N        0.58236    0.18220    0.29902    1.000
    N33      N        0.54813    0.19890    0.20721    1.000
    N34      N        0.58221    0.26450    0.17658    1.000
    N35      N        0.64000    0.29130    0.24783    1.000
    C19      C        0.45625    0.16860    0.53586    1.000
    C20      C        0.75082    0.19790    0.42292    1.000
    H4       H        0.75080    0.16250    0.37040    1.000
    C21      C        0.69397    0.24380    0.41509    1.000
    C22      C        0.69285    0.29630    0.49319    1.000
    C23      C        0.63670    0.35550    0.49294    1.000
    C24      C        0.63815    0.24010    0.32124    1.000
    N36      N        0.45543    0.06660    0.57067    1.000
    Cu9      Cu       0.95728    0.17639    0.96037    1.000
    Cu10     Cu       0.04280    0.38507    0.87775    1.000
    N37      N        0.13694    0.01770    0.02937    1.000
    N38      N        0.07913    0.00650    0.02155    1.000
    N39      N        0.04641    0.12110    0.98310    1.000
    N40      N        0.08199    0.21030    0.96387    1.000
    N41      N        0.08236    0.31780    0.79902    1.000
    N42      N        0.04813    0.30110    0.70721    1.000
    N43      N        0.08221    0.23550    0.67658    1.000
    N44      N        0.14000    0.20870    0.74783    1.000
    C25      C        0.95625    0.33140    0.03586    1.000
    C26      C        0.25082    0.30210    0.92292    1.000
    H5       H        0.25080    0.33750    0.87040    1.000
    C27      C        0.19397    0.25620    0.91509    1.000
    C28      C        0.19285    0.20370    0.99319    1.000
    C29      C        0.13670    0.14450    0.99294    1.000
    C30      C        0.13815    0.25990    0.82124    1.000
    N45      N        0.95543    0.43340    0.07067    1.000
    Cu11     Cu       0.45728    0.67639    0.96037    1.000
    Cu12     Cu       0.54280    0.88507    0.87775    1.000
    N46      N        0.63694    0.51770    0.02937    1.000
    N47      N        0.57913    0.50650    0.02155    1.000
    N48      N        0.54641    0.62110    0.98310    1.000
    N49      N        0.58199    0.71030    0.96387    1.000
    N50      N        0.58236    0.81780    0.79902    1.000
    N51      N        0.54813    0.80110    0.70721    1.000
    N52      N        0.58221    0.73550    0.67658    1.000
    N53      N        0.64000    0.70870    0.74783    1.000
    C31      C        0.45625    0.83140    0.03586    1.000
    C32      C        0.75082    0.80210    0.92292    1.000
    H6       H        0.75080    0.83750    0.87040    1.000
    C33      C        0.69397    0.75620    0.91509    1.000
    C34      C        0.69285    0.70370    0.99319    1.000
    C35      C        0.63670    0.64450    0.99294    1.000
    C36      C        0.63815    0.75990    0.82124    1.000
    N54      N        0.45543    0.93340    0.07067    1.000
    Cu13     Cu       0.04272    0.17639    0.53963    1.000
    Cu14     Cu       0.95720    0.38507    0.62225    1.000
    N55      N        0.86306    0.01770    0.47063    1.000
    N56      N        0.92087    0.00650    0.47845    1.000
    N57      N        0.95359    0.12110    0.51690    1.000
    N58      N        0.91801    0.21030    0.53613    1.000
    N59      N        0.91764    0.31780    0.70098    1.000
    N60      N        0.95187    0.30110    0.79279    1.000
    N61      N        0.91779    0.23550    0.82342    1.000
    N62      N        0.86000    0.20870    0.75217    1.000
    C37      C        0.04375    0.33140    0.46414    1.000
    C38      C        0.74918    0.30210    0.57708    1.000
    H7       H        0.74920    0.33750    0.62960    1.000
    C39      C        0.80603    0.25620    0.58491    1.000
    C40      C        0.80715    0.20370    0.50681    1.000
    C41      C        0.86330    0.14450    0.50706    1.000
    C42      C        0.86185    0.25990    0.67876    1.000
    N63      N        0.04457    0.43340    0.42933    1.000
    Cu15     Cu       0.54272    0.67639    0.53963    1.000
    Cu16     Cu       0.45720    0.88507    0.62225    1.000
    N64      N        0.36306    0.51770    0.47063    1.000
    N65      N        0.42087    0.50650    0.47845    1.000
    N66      N        0.45359    0.62110    0.51690    1.000
    N67      N        0.41801    0.71030    0.53613    1.000
    N68      N        0.41764    0.81780    0.70098    1.000
    N69      N        0.45187    0.80110    0.79279    1.000
    N70      N        0.41779    0.73550    0.82342    1.000
    N71      N        0.36000    0.70870    0.75217    1.000
    C43      C        0.54375    0.83140    0.46414    1.000
    C44      C        0.24918    0.80210    0.57708    1.000
    H8       H        0.24920    0.83750    0.62960    1.000
    C45      C        0.30603    0.75620    0.58491    1.000
    C46      C        0.30715    0.70370    0.50681    1.000
    C47      C        0.36330    0.64450    0.50706    1.000
    C48      C        0.36185    0.75990    0.67876    1.000
    N72      N        0.54457    0.93340    0.42933    1.000
