# CIF file generated by openbabel 3.1.0, see https://openbabel.org
data_I
_chemical_name_common 'image0'
_cell_length_a 10.0103
_cell_length_b 9.9896
_cell_length_c 12.852
_cell_angle_alpha 90
_cell_angle_beta 91.113
_cell_angle_gamma 90
_space_group_name_H-M_alt 'P 1'
_space_group_name_Hall 'P 1'
loop_
    _symmetry_equiv_pos_as_xyz
    x,y,z
loop_
    _atom_site_label
    _atom_site_type_symbol
    _atom_site_fract_x
    _atom_site_fract_y
    _atom_site_fract_z
    _atom_site_occupancy
    Co1      Co       0.37110    0.04940    0.54630    1.000
    Co2      Co       0.11830    0.80090    0.54970    1.000
    Co3      Co       0.12890    0.04340    0.95600    1.000
    Co4      Co       0.37610    0.79310    0.94650    1.000
    Co5      Co       0.25160    0.90530    0.24900    1.000
    P1       P        0.11300    0.76230    0.06200    1.000
    P2       P        0.39680    0.05500    0.07460    1.000
    P3       P        0.10110    0.06090    0.42170    1.000
    P4       P        0.24680    0.93560    0.75020    1.000
    P5       P        0.39280    0.77800    0.43840    1.000
    O1       O        0.29890    0.73860    0.52510    1.000
    O2       O        0.33280    0.75960    0.33260    1.000
    O3       O        0.48340    0.17520    0.08460    1.000
    O4       O        0.12530    0.89610    0.67970    1.000
    O5       O        0.44060    0.96660    0.98470    1.000
    O6       O        0.19830    0.10740    0.50810    1.000
    O7       O        0.29720    0.81450    0.80980    1.000
    O8       O        0.10430    0.81730    0.17110    1.000
    O9       O        0.35980    0.99260    0.68510    1.000
    O10      O        0.25930    0.71960    0.04520    1.000
    O11      O        0.43650    0.92340    0.45090    1.000
    O12      O        0.40950    0.97580    0.17460    1.000
    O13      O        0.17040    0.05680    0.31910    1.000
    O14      O        0.20070    0.04600    0.82240    1.000
    O15      O        0.06930    0.86720    0.98240    1.000
    O16      O        0.05340    0.92070    0.44380    1.000
    O17      O        0.51700    0.69190    0.45320    1.000
    O18      O        0.99030    0.15890    0.41050    1.000
    O19      O        0.02300    0.64320    0.04850    1.000
    O20      O        0.25320    0.10180    0.05910    1.000
    Co6      Co       0.62890    0.54940    0.45370    1.000
    Co7      Co       0.88170    0.30090    0.45030    1.000
    Co8      Co       0.87110    0.54340    0.04400    1.000
    Co9      Co       0.62390    0.29310    0.05350    1.000
    Co10     Co       0.74840    0.40530    0.75100    1.000
    P6       P        0.88700    0.26230    0.93800    1.000
    P7       P        0.60320    0.55500    0.92540    1.000
    P8       P        0.89890    0.56090    0.57830    1.000
    P9       P        0.75320    0.43560    0.24980    1.000
    P10      P        0.60720    0.27800    0.56160    1.000
    O21      O        0.70110    0.23860    0.47490    1.000
    O22      O        0.66720    0.25960    0.66740    1.000
    O23      O        0.51660    0.67520    0.91540    1.000
    O24      O        0.87470    0.39610    0.32030    1.000
    O25      O        0.55940    0.46660    0.01530    1.000
    O26      O        0.80170    0.60740    0.49190    1.000
    O27      O        0.70280    0.31450    0.19020    1.000
    O28      O        0.89570    0.31730    0.82890    1.000
    O29      O        0.64020    0.49260    0.31490    1.000
    O30      O        0.74070    0.21960    0.95480    1.000
    O31      O        0.56350    0.42340    0.54910    1.000
    O32      O        0.59050    0.47580    0.82540    1.000
    O33      O        0.82960    0.55680    0.68090    1.000
    O34      O        0.79930    0.54600    0.17760    1.000
    O35      O        0.93070    0.36720    0.01760    1.000
    O36      O        0.94660    0.42070    0.55620    1.000
    O37      O        0.48300    0.19190    0.54680    1.000
    O38      O        0.00970    0.65890    0.58950    1.000
    O39      O        0.97700    0.14320    0.95150    1.000
    O40      O        0.74680    0.60180    0.94090    1.000
