# CIF file generated by openbabel 3.1.0, see https://openbabel.org
data_I
_chemical_name_common 'image0'
_cell_length_a 10.3803
_cell_length_b 11.3508
_cell_length_c 12.9894
_cell_angle_alpha 72.435
_cell_angle_beta 89.867
_cell_angle_gamma 87.372
_space_group_name_H-M_alt 'P 1'
_space_group_name_Hall 'P 1'
loop_
    _symmetry_equiv_pos_as_xyz
    x,y,z
loop_
    _atom_site_label
    _atom_site_type_symbol
    _atom_site_fract_x
    _atom_site_fract_y
    _atom_site_fract_z
    _atom_site_occupancy
    Dy1      Dy       0.47900    0.04557    0.33970    1.000
    C1       C        0.49470    0.26590    0.17050    1.000
    C2       C        0.50930    0.75470    0.50590    1.000
    C3       C        0.26650    0.00910    0.56460    1.000
    C4       C        0.49820    0.38530    0.08570    1.000
    C5       C        0.50540    0.62170    0.50550    1.000
    C6       C        0.12950    0.00460    0.53010    1.000
    C7       C        0.44810    0.49490    0.10210    1.000
    C8       C        0.38940    0.56080    0.52770    1.000
    C9       C        0.07670    0.09770    0.44080    1.000
    C10      C        0.39840    0.49610    0.20580    1.000
    H1       H        0.40000    0.42270    0.26250    1.000
    C11      C        0.27430    0.62030    0.55250    1.000
    H2       H        0.27620    0.70080    0.55590    1.000
    C12      C        0.14970    0.19890    0.38000    1.000
    H3       H        0.23460    0.20400    0.40030    1.000
    C13      C        0.34980    0.60110    0.22220    1.000
    H4       H        0.31890    0.59970    0.28980    1.000
    C14      C        0.16190    0.56070    0.57110    1.000
    H5       H        0.08750    0.60100    0.58620    1.000
    C15      C        0.09740    0.28760    0.29330    1.000
    H6       H        0.14680    0.35220    0.25440    1.000
    C16      C        0.34550    0.71480    0.13570    1.000
    H7       H        0.31030    0.78650    0.14720    1.000
    C17      C        0.15760    0.43710    0.56760    1.000
    H8       H        0.08030    0.39700    0.58090    1.000
    C18      C        0.96730    0.28170    0.26190    1.000
    H9       H        0.93240    0.34260    0.20230    1.000
    C19      C        0.39230    0.71910    0.03720    1.000
    H10      H        0.38950    0.79400    0.98230    1.000
    C20      C        0.26490    0.37650    0.54510    1.000
    H11      H        0.26060    0.29500    0.54460    1.000
    C21      C        0.89330    0.18860    0.31760    1.000
    H12      H        0.80820    0.18700    0.29600    1.000
    C22      C        0.44610    0.61030    0.01610    1.000
    C23      C        0.38420    0.43660    0.52210    1.000
    C24      C        0.94480    0.09240    0.40950    1.000
    O1       O        0.38672    0.21701    0.19472    1.000
    O2       O        0.49139    0.83365    0.41492    1.000
    O3       O        0.35951    0.99366    0.50523    1.000
    O4       O        0.59665    0.21370    0.21748    1.000
    O5       O        0.53038    0.77575    0.59375    1.000
    O6       O        0.28755    0.01943    0.65607    1.000
    Dy2      Dy       0.52100    0.95443    0.66030    1.000
    C25      C        0.50530    0.73410    0.82950    1.000
    C26      C        0.49070    0.24530    0.49410    1.000
    C27      C        0.73350    0.99090    0.43540    1.000
    C28      C        0.50180    0.61470    0.91430    1.000
    C29      C        0.49460    0.37830    0.49450    1.000
    C30      C        0.87050    0.99540    0.46990    1.000
    C31      C        0.55190    0.50510    0.89790    1.000
    C32      C        0.61060    0.43920    0.47230    1.000
    C33      C        0.92330    0.90230    0.55920    1.000
    C34      C        0.60160    0.50390    0.79420    1.000
    H13      H        0.60000    0.57730    0.73750    1.000
    C35      C        0.72570    0.37970    0.44750    1.000
    H14      H        0.72380    0.29920    0.44410    1.000
    C36      C        0.85030    0.80110    0.62000    1.000
    H15      H        0.76540    0.79600    0.59970    1.000
    C37      C        0.65020    0.39890    0.77780    1.000
    H16      H        0.68110    0.40030    0.71020    1.000
    C38      C        0.83810    0.43930    0.42890    1.000
    H17      H        0.91250    0.39900    0.41380    1.000
    C39      C        0.90260    0.71240    0.70670    1.000
    H18      H        0.85320    0.64780    0.74560    1.000
    C40      C        0.65450    0.28520    0.86430    1.000
    H19      H        0.68970    0.21350    0.85280    1.000
    C41      C        0.84240    0.56290    0.43240    1.000
    H20      H        0.91970    0.60300    0.41910    1.000
    C42      C        0.03270    0.71830    0.73810    1.000
    H21      H        0.06760    0.65740    0.79770    1.000
    C43      C        0.60770    0.28090    0.96280    1.000
    H22      H        0.61050    0.20600    0.01770    1.000
    C44      C        0.73510    0.62350    0.45490    1.000
    H23      H        0.73940    0.70500    0.45540    1.000
    C45      C        0.10670    0.81140    0.68240    1.000
    H24      H        0.19180    0.81300    0.70400    1.000
    C46      C        0.55390    0.38970    0.98390    1.000
    C47      C        0.61580    0.56340    0.47790    1.000
    C48      C        0.05520    0.90760    0.59050    1.000
    O7       O        0.61328    0.78299    0.80528    1.000
    O8       O        0.50861    0.16635    0.58508    1.000
    O9       O        0.64049    0.00634    0.49477    1.000
    O10      O        0.40335    0.78630    0.78252    1.000
    O11      O        0.46962    0.22425    0.40625    1.000
    O12      O        0.71245    0.98057    0.34393    1.000
