# CIF file generated by openbabel 3.1.0, see https://openbabel.org
data_I
_chemical_name_common 'image0'
_cell_length_a 20.8484
_cell_length_b 21.71
_cell_length_c 15.4856
_cell_angle_alpha 90
_cell_angle_beta 90
_cell_angle_gamma 90
_space_group_name_H-M_alt 'P 1'
_space_group_name_Hall 'P 1'
loop_
    _symmetry_equiv_pos_as_xyz
    x,y,z
loop_
    _atom_site_label
    _atom_site_type_symbol
    _atom_site_fract_x
    _atom_site_fract_y
    _atom_site_fract_z
    _atom_site_occupancy
    Fe1      Fe       0.94677    0.67117    0.98153    1.000
    O1       O        0.87780    0.72380    0.02060    1.000
    O2       O        0.92650    0.58880    0.94300    1.000
    O3       O        0.71630    0.75540    0.31060    1.000
    O4       O        0.80620    0.47280    0.67260    1.000
    N1       N        0.94800    0.63940    0.10890    1.000
    N2       N        0.04670    0.63780    0.99670    1.000
    H1       H        0.04970    0.60330    0.96360    1.000
    N3       N        0.00810    0.75520    0.96500    1.000
    H2       H        0.99150    0.78600    0.99810    1.000
    N4       N        0.92010    0.69650    0.85670    1.000
    C1       C        0.84640    0.73250    0.09290    1.000
    C2       C        0.79850    0.77700    0.09090    1.000
    H3       H        0.79400    0.80230    0.04280    1.000
    C3       C        0.75730    0.78370    0.16090    1.000
    H4       H        0.72530    0.81350    0.15960    1.000
    C4       C        0.76410    0.74600    0.23280    1.000
    C5       C        0.81200    0.70150    0.23480    1.000
    H5       H        0.81650    0.67620    0.28290    1.000
    C6       C        0.85320    0.69470    0.16480    1.000
    C7       C        0.90610    0.65330    0.17240    1.000
    H6       H        0.91220    0.63440    0.22560    1.000
    C8       C        0.99680    0.59160    0.12370    1.000
    H7       H        0.98530    0.55370    0.09450    1.000
    H8       H        0.00150    0.58330    0.18490    1.000
    C9       C        0.05820    0.61770    0.08700    1.000
    H9       H        0.07230    0.65240    0.12160    1.000
    H10      H        0.09160    0.58650    0.08830    1.000
    C10      C        0.09480    0.68140    0.96210    1.000
    H11      H        0.09580    0.67970    0.89950    1.000
    H12      H        0.13720    0.67170    0.98400    1.000
    C11      C        0.07370    0.74400    0.99250    1.000
    H13      H        0.07640    0.74610    0.05490    1.000
    H14      H        0.10170    0.77530    0.96860    1.000
    C12      C        0.00040    0.77350    0.86800    1.000
    H15      H        0.01020    0.81680    0.86050    1.000
    H16      H        0.03000    0.74980    0.83280    1.000
    C13      C        0.93510    0.76130    0.84090    1.000
    H17      H        0.93040    0.77060    0.78000    1.000
    H18      H        0.90580    0.78740    0.87300    1.000
    C14      C        0.89210    0.66520    0.79740    1.000
    H19      H        0.88060    0.68520    0.74660    1.000
    C15      C        0.87740    0.59990    0.80550    1.000
    C16      C        0.84700    0.57150    0.73630    1.000
    H20      H        0.83190    0.59510    0.69040    1.000
    C17      C        0.83900    0.50790    0.73560    1.000
    C18      C        0.86150    0.47270    0.80420    1.000
    H21      H        0.85610    0.43020    0.80370    1.000
    C19      C        0.89190    0.50110    0.87340    1.000
    H22      H        0.90700    0.47750    0.91930    1.000
    C20      C        0.89990    0.56460    0.87410    1.000
    C21      C        0.74980    0.74980    0.38440    1.000
    H23      H        0.72160    0.75550    0.43280    1.000
    H24      H        0.78300    0.78040    0.38590    1.000
    H25      H        0.76870    0.70950    0.38720    1.000
    C22      C        0.77370    0.50470    0.61390    1.000
    H26      H        0.75350    0.47680    0.57420    1.000
    H27      H        0.80260    0.53120    0.58310    1.000
    H28      H        0.74150    0.52910    0.64210    1.000
    C23      C        0.86840    0.74810    0.08490    1.000
    C24      C        0.82460    0.74030    0.15170    1.000
    C25      C        0.77880    0.78530    0.16790    1.000
    C26      C        0.77670    0.83810    0.11740    1.000
    C27      C        0.82050    0.84600    0.05060    1.000
    C28      C        0.86630    0.80100    0.03430    1.000
    C29      C        0.91730    0.81090    0.98220    1.000
    C30      C        0.01770    0.78610    0.91190    1.000
    C31      C        0.04990    0.74170    0.86100    1.000
    C32      C        0.10540    0.67160    0.98570    1.000
    C33      C        0.10540    0.70900    0.05770    1.000
    C34      C        0.02700    0.65300    0.15400    1.000
    C35      C        0.02670    0.59790    0.11550    1.000
    C36      C        0.94980    0.55390    0.00000    1.000
    C37      C        0.90940    0.56010    0.92760    1.000
    C38      C        0.89060    0.50530    0.88870    1.000
    C39      C        0.85620    0.50650    0.81180    1.000
    C40      C        0.84050    0.56260    0.77390    1.000
    C41      C        0.85920    0.61740    0.81290    1.000
    C42      C        0.89370    0.61610    0.88970    1.000
    C43      C        0.73450    0.93880    0.08700    1.000
    C44      C        0.85950    0.39680    0.79820    1.000
    Fe2      Fe       0.97300    0.68850    0.00450    1.000
    H29      H        0.82600    0.70490    0.18550    1.000
    H30      H        0.74950    0.78000    0.21260    1.000
    H31      H        0.81910    0.88140    0.01680    1.000
    H32      H        0.91750    0.84800    0.95210    1.000
    H33      H        0.05060    0.80650    0.94580    1.000
    H34      H        0.00130    0.81660    0.87190    1.000
    H35      H        0.09350    0.75430    0.84790    1.000
    H36      H        0.02710    0.73340    0.80770    1.000
    H37      H        0.10390    0.62890    0.00420    1.000
    H38      H        0.14520    0.67760    0.95440    1.000
    H39      H        0.04350    0.64970    0.89080    1.000
    H40      H        0.11420    0.75150    0.04220    1.000
    H41      H        0.13710    0.69540    0.09940    1.000
    H42      H        0.06090    0.65430    0.19730    1.000
    H43      H        0.98660    0.65980    0.18350    1.000
    H44      H        0.01280    0.56640    0.15570    1.000
    H45      H        0.06920    0.58750    0.09490    1.000
    H46      H        0.95670    0.51460    0.02210    1.000
    H47      H        0.90120    0.46780    0.91400    1.000
    H48      H        0.81740    0.56340    0.72250    1.000
    H49      H        0.84870    0.65490    0.78760    1.000
    H50      H        0.02720    0.73790    0.12080    1.000
    H51      H        0.69870    0.96610    0.09440    1.000
    H52      H        0.74330    0.93440    0.02610    1.000
    H53      H        0.77150    0.95540    0.11520    1.000
    H54      H        0.84180    0.36570    0.76110    1.000
    H55      H        0.84590    0.38950    0.85650    1.000
    H56      H        0.90550    0.39530    0.79530    1.000
    N5       N        0.96820    0.77310    0.96850    1.000
    N6       N        0.04860    0.68390    0.92410    1.000
    N7       N        0.03730    0.70200    0.09370    1.000
    N8       N        0.97940    0.60290    0.03950    1.000
    O5       O        0.90740    0.70150    0.08810    1.000
    O6       O        0.91460    0.67410    0.91950    1.000
    O7       O        0.71940    0.88000    0.12240    1.000
    O8       O        0.83520    0.46280    0.76760    1.000
    Fe3      Fe       0.55323    0.17117    0.48153    1.000
    O9       O        0.62220    0.22380    0.52060    1.000
    O10      O        0.57350    0.08880    0.44300    1.000
    O11      O        0.78370    0.25540    0.81060    1.000
    O12      O        0.69380    0.97280    0.17260    1.000
    N9       N        0.55200    0.13940    0.60890    1.000
    N10      N        0.45330    0.13780    0.49670    1.000
    H57      H        0.45030    0.10330    0.46360    1.000
    N11      N        0.49190    0.25520    0.46500    1.000
    H58      H        0.50850    0.28600    0.49810    1.000
    N12      N        0.57990    0.19650    0.35670    1.000
    C45      C        0.65360    0.23250    0.59290    1.000
    C46      C        0.70150    0.27700    0.59090    1.000
    H59      H        0.70600    0.30230    0.54280    1.000
    C47      C        0.74270    0.28370    0.66090    1.000
    H60      H        0.77470    0.31350    0.65960    1.000
    C48      C        0.73590    0.24600    0.73280    1.000
    C49      C        0.68800    0.20150    0.73480    1.000
    H61      H        0.68350    0.17620    0.78290    1.000
    C50      C        0.64680    0.19470    0.66480    1.000
    C51      C        0.59390    0.15330    0.67240    1.000
    H62      H        0.58780    0.13440    0.72560    1.000
    C52      C        0.50320    0.09160    0.62370    1.000
    H63      H        0.51470    0.05370    0.59450    1.000
    H64      H        0.49850    0.08330    0.68490    1.000
    C53      C        0.44180    0.11770    0.58700    1.000
    H65      H        0.42770    0.15240    0.62160    1.000
    H66      H        0.40840    0.08650    0.58830    1.000
    C54      C        0.40520    0.18140    0.46210    1.000
    H67      H        0.40420    0.17970    0.39950    1.000
    H68      H        0.36280    0.17170    0.48400    1.000
    C55      C        0.42630    0.24400    0.49250    1.000
    H69      H        0.42360    0.24610    0.55490    1.000
    H70      H        0.39830    0.27530    0.46860    1.000
    C56      C        0.49960    0.27350    0.36800    1.000
    H71      H        0.48980    0.31680    0.36050    1.000
    H72      H        0.47000    0.24980    0.33280    1.000
    C57      C        0.56490    0.26130    0.34090    1.000
    H73      H        0.56960    0.27060    0.28000    1.000
    H74      H        0.59420    0.28740    0.37300    1.000
    C58      C        0.60790    0.16520    0.29740    1.000
    H75      H        0.61940    0.18520    0.24660    1.000
    C59      C        0.62260    0.09990    0.30550    1.000
    C60      C        0.65300    0.07150    0.23630    1.000
    H76      H        0.66810    0.09510    0.19040    1.000
    C61      C        0.66100    0.00790    0.23560    1.000
    C62      C        0.63850    0.97270    0.30420    1.000
    H77      H        0.64390    0.93020    0.30370    1.000
    C63      C        0.60810    0.00110    0.37340    1.000
    H78      H        0.59300    0.97750    0.41930    1.000
    C64      C        0.60010    0.06460    0.37410    1.000
    C65      C        0.75020    0.24980    0.88440    1.000
    H79      H        0.77840    0.25550    0.93280    1.000
    H80      H        0.71700    0.28040    0.88590    1.000
    H81      H        0.73130    0.20950    0.88720    1.000
    C66      C        0.72630    0.00470    0.11390    1.000
    H82      H        0.74650    0.97680    0.07420    1.000
    H83      H        0.69740    0.03120    0.08310    1.000
    H84      H        0.75850    0.02910    0.14210    1.000
    C67      C        0.63160    0.24810    0.58490    1.000
    C68      C        0.67540    0.24030    0.65170    1.000
    C69      C        0.72120    0.28530    0.66790    1.000
    C70      C        0.72330    0.33810    0.61740    1.000
    C71      C        0.67950    0.34600    0.55060    1.000
    C72      C        0.63370    0.30100    0.53430    1.000
    C73      C        0.58270    0.31090    0.48220    1.000
    C74      C        0.48230    0.28610    0.41190    1.000
    C75      C        0.45010    0.24170    0.36100    1.000
    C76      C        0.39460    0.17160    0.48570    1.000
    C77      C        0.39460    0.20900    0.55770    1.000
    C78      C        0.47300    0.15300    0.65400    1.000
    C79      C        0.47330    0.09790    0.61550    1.000
    C80      C        0.55020    0.05390    0.50000    1.000
    C81      C        0.59060    0.06010    0.42760    1.000
    C82      C        0.60940    0.00530    0.38870    1.000
    C83      C        0.64380    0.00650    0.31180    1.000
    C84      C        0.65950    0.06260    0.27390    1.000
    C85      C        0.64080    0.11740    0.31290    1.000
    C86      C        0.60630    0.11610    0.38970    1.000
    C87      C        0.76550    0.43880    0.58700    1.000
    C88      C        0.64050    0.89680    0.29820    1.000
    Fe4      Fe       0.52700    0.18850    0.50450    1.000
    H85      H        0.67400    0.20490    0.68550    1.000
    H86      H        0.75050    0.28000    0.71260    1.000
    H87      H        0.68090    0.38140    0.51680    1.000
    H88      H        0.58250    0.34800    0.45210    1.000
    H89      H        0.44940    0.30650    0.44580    1.000
    H90      H        0.49870    0.31660    0.37190    1.000
    H91      H        0.40650    0.25430    0.34790    1.000
    H92      H        0.47290    0.23340    0.30770    1.000
    H93      H        0.39610    0.12890    0.50420    1.000
    H94      H        0.35480    0.17760    0.45440    1.000
    H95      H        0.45650    0.14970    0.39080    1.000
    H96      H        0.38580    0.25150    0.54220    1.000
    H97      H        0.36290    0.19540    0.59940    1.000
    H98      H        0.43910    0.15430    0.69730    1.000
    H99      H        0.51340    0.15980    0.68350    1.000
    H100     H        0.48720    0.06640    0.65570    1.000
    H101     H        0.43080    0.08750    0.59490    1.000
    H102     H        0.54330    0.01460    0.52210    1.000
    H103     H        0.59880    0.96780    0.41400    1.000
    H104     H        0.68260    0.06340    0.22250    1.000
    H105     H        0.65130    0.15490    0.28760    1.000
    H106     H        0.47280    0.23790    0.62080    1.000
    H107     H        0.80130    0.46610    0.59440    1.000
    H108     H        0.75670    0.43440    0.52610    1.000
    H109     H        0.72850    0.45540    0.61520    1.000
    H110     H        0.65820    0.86570    0.26110    1.000
    H111     H        0.65410    0.88950    0.35650    1.000
    H112     H        0.59450    0.89530    0.29530    1.000
    N13      N        0.53180    0.27310    0.46850    1.000
    N14      N        0.45140    0.18390    0.42410    1.000
    N15      N        0.46270    0.20200    0.59370    1.000
    N16      N        0.52060    0.10290    0.53950    1.000
    O13      O        0.59260    0.20150    0.58810    1.000
    O14      O        0.58540    0.17410    0.41950    1.000
    O15      O        0.78060    0.38000    0.62240    1.000
    O16      O        0.66480    0.96280    0.26760    1.000
    Fe5      Fe       0.05323    0.32883    0.48153    1.000
    O17      O        0.12220    0.27620    0.52060    1.000
    O18      O        0.07350    0.41120    0.44300    1.000
    O19      O        0.28370    0.24460    0.81060    1.000
    O20      O        0.19380    0.52720    0.17260    1.000
    N17      N        0.05200    0.36060    0.60890    1.000
    N18      N        0.95330    0.36220    0.49670    1.000
    H113     H        0.95030    0.39670    0.46360    1.000
    N19      N        0.99190    0.24480    0.46500    1.000
    H114     H        0.00850    0.21400    0.49810    1.000
    N20      N        0.07990    0.30350    0.35670    1.000
    C89      C        0.15360    0.26750    0.59290    1.000
    C90      C        0.20150    0.22300    0.59090    1.000
    H115     H        0.20600    0.19770    0.54280    1.000
    C91      C        0.24270    0.21630    0.66090    1.000
    H116     H        0.27470    0.18650    0.65960    1.000
    C92      C        0.23590    0.25400    0.73280    1.000
    C93      C        0.18800    0.29850    0.73480    1.000
    H117     H        0.18350    0.32380    0.78290    1.000
    C94      C        0.14680    0.30530    0.66480    1.000
    C95      C        0.09390    0.34670    0.67240    1.000
    H118     H        0.08780    0.36560    0.72560    1.000
    C96      C        0.00320    0.40840    0.62370    1.000
    H119     H        0.01470    0.44630    0.59450    1.000
    H120     H        0.99850    0.41670    0.68490    1.000
    C97      C        0.94180    0.38230    0.58700    1.000
    H121     H        0.92770    0.34760    0.62160    1.000
    H122     H        0.90840    0.41350    0.58830    1.000
    C98      C        0.90520    0.31860    0.46210    1.000
    H123     H        0.90420    0.32030    0.39950    1.000
    H124     H        0.86280    0.32830    0.48400    1.000
    C99      C        0.92630    0.25600    0.49250    1.000
    H125     H        0.92360    0.25390    0.55490    1.000
    H126     H        0.89830    0.22470    0.46860    1.000
    C100     C        0.99960    0.22650    0.36800    1.000
    H127     H        0.98980    0.18320    0.36050    1.000
    H128     H        0.97000    0.25020    0.33280    1.000
    C101     C        0.06490    0.23870    0.34090    1.000
    H129     H        0.06960    0.22940    0.28000    1.000
    H130     H        0.09420    0.21260    0.37300    1.000
    C102     C        0.10790    0.33480    0.29740    1.000
    H131     H        0.11940    0.31480    0.24660    1.000
    C103     C        0.12260    0.40010    0.30550    1.000
    C104     C        0.15300    0.42850    0.23630    1.000
    H132     H        0.16810    0.40490    0.19040    1.000
    C105     C        0.16100    0.49210    0.23560    1.000
    C106     C        0.13850    0.52730    0.30420    1.000
    H133     H        0.14390    0.56980    0.30370    1.000
    C107     C        0.10810    0.49890    0.37340    1.000
    H134     H        0.09300    0.52250    0.41930    1.000
    C108     C        0.10010    0.43540    0.37410    1.000
    C109     C        0.25020    0.25020    0.88440    1.000
    H135     H        0.27840    0.24450    0.93280    1.000
    H136     H        0.21700    0.21960    0.88590    1.000
    H137     H        0.23130    0.29050    0.88720    1.000
    C110     C        0.22630    0.49530    0.11390    1.000
    H138     H        0.24650    0.52320    0.07420    1.000
    H139     H        0.19740    0.46880    0.08310    1.000
    H140     H        0.25850    0.47090    0.14210    1.000
    C111     C        0.13160    0.25190    0.58490    1.000
    C112     C        0.17540    0.25970    0.65170    1.000
    C113     C        0.22120    0.21470    0.66790    1.000
    C114     C        0.22330    0.16190    0.61740    1.000
    C115     C        0.17950    0.15400    0.55060    1.000
    C116     C        0.13370    0.19900    0.53430    1.000
    C117     C        0.08270    0.18910    0.48220    1.000
    C118     C        0.98230    0.21390    0.41190    1.000
    C119     C        0.95010    0.25830    0.36100    1.000
    C120     C        0.89460    0.32840    0.48570    1.000
    C121     C        0.89460    0.29100    0.55770    1.000
    C122     C        0.97300    0.34700    0.65400    1.000
    C123     C        0.97330    0.40210    0.61550    1.000
    C124     C        0.05020    0.44610    0.50000    1.000
    C125     C        0.09060    0.43990    0.42760    1.000
    C126     C        0.10940    0.49470    0.38870    1.000
    C127     C        0.14380    0.49350    0.31180    1.000
    C128     C        0.15950    0.43740    0.27390    1.000
    C129     C        0.14080    0.38260    0.31290    1.000
    C130     C        0.10630    0.38390    0.38970    1.000
    C131     C        0.26550    0.06120    0.58700    1.000
    C132     C        0.14050    0.60320    0.29820    1.000
    Fe6      Fe       0.02700    0.31150    0.50450    1.000
    H141     H        0.17400    0.29510    0.68550    1.000
    H142     H        0.25050    0.22000    0.71260    1.000
    H143     H        0.18090    0.11860    0.51680    1.000
    H144     H        0.08250    0.15200    0.45210    1.000
    H145     H        0.94940    0.19350    0.44580    1.000
    H146     H        0.99870    0.18340    0.37190    1.000
    H147     H        0.90650    0.24570    0.34790    1.000
    H148     H        0.97290    0.26660    0.30770    1.000
    H149     H        0.89610    0.37110    0.50420    1.000
    H150     H        0.85480    0.32240    0.45440    1.000
    H151     H        0.95650    0.35030    0.39080    1.000
    H152     H        0.88580    0.24850    0.54220    1.000
    H153     H        0.86290    0.30460    0.59940    1.000
    H154     H        0.93910    0.34570    0.69730    1.000
    H155     H        0.01340    0.34020    0.68350    1.000
    H156     H        0.98720    0.43360    0.65570    1.000
    H157     H        0.93080    0.41250    0.59490    1.000
    H158     H        0.04330    0.48540    0.52210    1.000
    H159     H        0.09880    0.53220    0.41400    1.000
    H160     H        0.18260    0.43660    0.22250    1.000
    H161     H        0.15130    0.34510    0.28760    1.000
    H162     H        0.97280    0.26210    0.62080    1.000
    H163     H        0.30130    0.03390    0.59440    1.000
    H164     H        0.25670    0.06560    0.52610    1.000
    H165     H        0.22850    0.04460    0.61520    1.000
    H166     H        0.15820    0.63430    0.26110    1.000
    H167     H        0.15410    0.61050    0.35650    1.000
    H168     H        0.09450    0.60470    0.29530    1.000
    N21      N        0.03180    0.22690    0.46850    1.000
    N22      N        0.95140    0.31610    0.42410    1.000
    N23      N        0.96270    0.29800    0.59370    1.000
    N24      N        0.02060    0.39710    0.53950    1.000
    O21      O        0.09260    0.29850    0.58810    1.000
    O22      O        0.08540    0.32590    0.41950    1.000
    O23      O        0.28060    0.12000    0.62240    1.000
    O24      O        0.16480    0.53720    0.26760    1.000
    Fe7      Fe       0.44677    0.82883    0.98153    1.000
    O25      O        0.37780    0.77620    0.02060    1.000
    O26      O        0.42650    0.91120    0.94300    1.000
    O27      O        0.21630    0.74460    0.31060    1.000
    O28      O        0.30620    0.02720    0.67260    1.000
    N25      N        0.44800    0.86060    0.10890    1.000
    N26      N        0.54670    0.86220    0.99670    1.000
    H169     H        0.54970    0.89670    0.96360    1.000
    N27      N        0.50810    0.74480    0.96500    1.000
    H170     H        0.49150    0.71400    0.99810    1.000
    N28      N        0.42010    0.80350    0.85670    1.000
    C133     C        0.34640    0.76750    0.09290    1.000
    C134     C        0.29850    0.72300    0.09090    1.000
    H171     H        0.29400    0.69770    0.04280    1.000
    C135     C        0.25730    0.71630    0.16090    1.000
    H172     H        0.22530    0.68650    0.15960    1.000
    C136     C        0.26410    0.75400    0.23280    1.000
    C137     C        0.31200    0.79850    0.23480    1.000
    H173     H        0.31650    0.82380    0.28290    1.000
    C138     C        0.35320    0.80530    0.16480    1.000
    C139     C        0.40610    0.84670    0.17240    1.000
    H174     H        0.41220    0.86560    0.22560    1.000
    C140     C        0.49680    0.90840    0.12370    1.000
    H175     H        0.48530    0.94630    0.09450    1.000
    H176     H        0.50150    0.91670    0.18490    1.000
    C141     C        0.55820    0.88230    0.08700    1.000
    H177     H        0.57230    0.84760    0.12160    1.000
    H178     H        0.59160    0.91350    0.08830    1.000
    C142     C        0.59480    0.81860    0.96210    1.000
    H179     H        0.59580    0.82030    0.89950    1.000
    H180     H        0.63720    0.82830    0.98400    1.000
    C143     C        0.57370    0.75600    0.99250    1.000
    H181     H        0.57640    0.75390    0.05490    1.000
    H182     H        0.60170    0.72470    0.96860    1.000
    C144     C        0.50040    0.72650    0.86800    1.000
    H183     H        0.51020    0.68320    0.86050    1.000
    H184     H        0.53000    0.75020    0.83280    1.000
    C145     C        0.43510    0.73870    0.84090    1.000
    H185     H        0.43040    0.72940    0.78000    1.000
    H186     H        0.40580    0.71260    0.87300    1.000
    C146     C        0.39210    0.83480    0.79740    1.000
    H187     H        0.38060    0.81480    0.74660    1.000
    C147     C        0.37740    0.90010    0.80550    1.000
    C148     C        0.34700    0.92850    0.73630    1.000
    H188     H        0.33190    0.90490    0.69040    1.000
    C149     C        0.33900    0.99210    0.73560    1.000
    C150     C        0.36150    0.02730    0.80420    1.000
    H189     H        0.35610    0.06980    0.80370    1.000
    C151     C        0.39190    0.99890    0.87340    1.000
    H190     H        0.40700    0.02250    0.91930    1.000
    C152     C        0.39990    0.93540    0.87410    1.000
    C153     C        0.24980    0.75020    0.38440    1.000
    H191     H        0.22160    0.74450    0.43280    1.000
    H192     H        0.28300    0.71960    0.38590    1.000
    H193     H        0.26870    0.79050    0.38720    1.000
    C154     C        0.27370    0.99530    0.61390    1.000
    H194     H        0.25350    0.02320    0.57420    1.000
    H195     H        0.30260    0.96880    0.58310    1.000
    H196     H        0.24150    0.97090    0.64210    1.000
    C155     C        0.36840    0.75190    0.08490    1.000
    C156     C        0.32460    0.75970    0.15170    1.000
    C157     C        0.27880    0.71470    0.16790    1.000
    C158     C        0.27670    0.66190    0.11740    1.000
    C159     C        0.32050    0.65400    0.05060    1.000
    C160     C        0.36630    0.69900    0.03430    1.000
    C161     C        0.41730    0.68910    0.98220    1.000
    C162     C        0.51770    0.71390    0.91190    1.000
    C163     C        0.54990    0.75830    0.86100    1.000
    C164     C        0.60540    0.82840    0.98570    1.000
    C165     C        0.60540    0.79100    0.05770    1.000
    C166     C        0.52700    0.84700    0.15400    1.000
    C167     C        0.52670    0.90210    0.11550    1.000
    C168     C        0.44980    0.94610    0.00000    1.000
    C169     C        0.40940    0.93990    0.92760    1.000
    C170     C        0.39060    0.99470    0.88870    1.000
    C171     C        0.35620    0.99350    0.81180    1.000
    C172     C        0.34050    0.93740    0.77390    1.000
    C173     C        0.35920    0.88260    0.81290    1.000
    C174     C        0.39370    0.88390    0.88970    1.000
    C175     C        0.23450    0.56120    0.08700    1.000
    C176     C        0.35950    0.10320    0.79820    1.000
    Fe8      Fe       0.47300    0.81150    0.00450    1.000
    H197     H        0.32600    0.79510    0.18550    1.000
    H198     H        0.24950    0.72000    0.21260    1.000
    H199     H        0.31910    0.61860    0.01680    1.000
    H200     H        0.41750    0.65200    0.95210    1.000
    H201     H        0.55060    0.69350    0.94580    1.000
    H202     H        0.50130    0.68340    0.87190    1.000
    H203     H        0.59350    0.74570    0.84790    1.000
    H204     H        0.52710    0.76660    0.80770    1.000
    H205     H        0.60390    0.87110    0.00420    1.000
    H206     H        0.64520    0.82240    0.95440    1.000
    H207     H        0.54350    0.85030    0.89080    1.000
    H208     H        0.61420    0.74850    0.04220    1.000
    H209     H        0.63710    0.80460    0.09940    1.000
    H210     H        0.56090    0.84570    0.19730    1.000
    H211     H        0.48660    0.84020    0.18350    1.000
    H212     H        0.51280    0.93360    0.15570    1.000
    H213     H        0.56920    0.91250    0.09490    1.000
    H214     H        0.45670    0.98540    0.02210    1.000
    H215     H        0.40120    0.03220    0.91400    1.000
    H216     H        0.31740    0.93660    0.72250    1.000
    H217     H        0.34870    0.84510    0.78760    1.000
    H218     H        0.52720    0.76210    0.12080    1.000
    H219     H        0.19870    0.53390    0.09440    1.000
    H220     H        0.24330    0.56560    0.02610    1.000
    H221     H        0.27150    0.54460    0.11520    1.000
    H222     H        0.34180    0.13430    0.76110    1.000
    H223     H        0.34590    0.11050    0.85650    1.000
    H224     H        0.40550    0.10470    0.79530    1.000
    N29      N        0.46820    0.72690    0.96850    1.000
    N30      N        0.54860    0.81610    0.92410    1.000
    N31      N        0.53730    0.79800    0.09370    1.000
    N32      N        0.47940    0.89710    0.03950    1.000
    O29      O        0.40740    0.79850    0.08810    1.000
    O30      O        0.41460    0.82590    0.91950    1.000
    O31      O        0.21940    0.62000    0.12240    1.000
    O32      O        0.33520    0.03720    0.76760    1.000
    C177     C        0.76490    0.45760    0.35390    1.000
    C178     C        0.76250    0.52900    0.34800    1.000
    C179     C        0.91340    0.44930    0.17210    1.000
    C180     C        0.95470    0.41280    0.23810    1.000
    C181     C        0.93280    0.54220    0.48360    1.000
    C182     C        0.96520    0.58010    0.41140    1.000
    C183     C        0.03040    0.23990    0.08160    1.000
    C184     C        0.95660    0.23510    0.07740    1.000
    C185     C        0.58530    0.45090    0.19110    1.000
    C186     C        0.54470    0.41470    0.25630    1.000
    C187     C        0.58000    0.53730    0.51880    1.000
    C188     C        0.54480    0.56940    0.44150    1.000
    O33      O        0.71070    0.43050    0.36280    1.000
    O34      O        0.70850    0.55630    0.34770    1.000
    O35      O        0.81710    0.43480    0.34670    1.000
    O36      O        0.81590    0.55610    0.33920    1.000
    O37      O        0.91250    0.43330    0.09470    1.000
    O38      O        0.98750    0.36910    0.21070    1.000
    O39      O        0.87990    0.49160    0.20530    1.000
    O40      O        0.94930    0.42990    0.31570    1.000
    O41      O        0.89900    0.49730    0.45840    1.000
    O42      O        0.95130    0.56260    0.33630    1.000
    O43      O        0.94420    0.55930    0.56050    1.000
    O44      O        0.00370    0.62150    0.42910    1.000
    O45      O        0.05800    0.29160    0.07750    1.000
    O46      O        0.92700    0.28520    0.06720    1.000
    O47      O        0.05890    0.18810    0.09140    1.000
    O48      O        0.93300    0.18390    0.08690    1.000
    O49      O        0.57010    0.44090    0.11070    1.000
    O50      O        0.49930    0.37990    0.22500    1.000
    O51      O        0.62880    0.48420    0.21570    1.000
    O52      O        0.55740    0.42090    0.33430    1.000
    O53      O        0.62050    0.49770    0.49600    1.000
    O54      O        0.55490    0.55950    0.37100    1.000
    O55      O        0.56620    0.55210    0.59310    1.000
    O56      O        0.50040    0.60770    0.47010    1.000
    Cr1      Cr       0.88668    0.49556    0.33304    1.000
    Cr2      Cr       0.49905    0.38111    0.09757    1.000
    Mn1      Mn       0.98780    0.36483    0.06949    1.000
    Mn2      Mn       0.62967    0.48987    0.35751    1.000
    C189     C        0.23510    0.54240    0.85390    1.000
    C190     C        0.23750    0.47100    0.84800    1.000
    C191     C        0.08660    0.55070    0.67210    1.000
    C192     C        0.04530    0.58720    0.73810    1.000
    C193     C        0.06720    0.45780    0.98360    1.000
    C194     C        0.03480    0.41990    0.91140    1.000
    C195     C        0.96960    0.76010    0.58160    1.000
    C196     C        0.04340    0.76490    0.57740    1.000
    C197     C        0.41470    0.54910    0.69110    1.000
    C198     C        0.45530    0.58530    0.75630    1.000
    C199     C        0.42000    0.46270    0.01880    1.000
    C200     C        0.45520    0.43060    0.94150    1.000
    O57      O        0.28930    0.56950    0.86280    1.000
    O58      O        0.29150    0.44370    0.84770    1.000
    O59      O        0.18290    0.56520    0.84670    1.000
    O60      O        0.18410    0.44390    0.83920    1.000
    O61      O        0.08750    0.56670    0.59470    1.000
    O62      O        0.01250    0.63090    0.71070    1.000
    O63      O        0.12010    0.50840    0.70530    1.000
    O64      O        0.05070    0.57010    0.81570    1.000
    O65      O        0.10100    0.50270    0.95840    1.000
    O66      O        0.04870    0.43740    0.83630    1.000
    O67      O        0.05580    0.44070    0.06050    1.000
    O68      O        0.99630    0.37850    0.92910    1.000
    O69      O        0.94200    0.70840    0.57750    1.000
    O70      O        0.07300    0.71480    0.56720    1.000
    O71      O        0.94110    0.81190    0.59140    1.000
    O72      O        0.06700    0.81610    0.58690    1.000
    O73      O        0.42990    0.55910    0.61070    1.000
    O74      O        0.50070    0.62010    0.72500    1.000
    O75      O        0.37120    0.51580    0.71570    1.000
    O76      O        0.44260    0.57910    0.83430    1.000
    O77      O        0.37950    0.50230    0.99600    1.000
    O78      O        0.44510    0.44050    0.87100    1.000
    O79      O        0.43380    0.44790    0.09310    1.000
    O80      O        0.49960    0.39230    0.97010    1.000
    Cr3      Cr       0.11332    0.50444    0.83304    1.000
    Cr4      Cr       0.50095    0.61889    0.59757    1.000
    Mn3      Mn       0.01220    0.63517    0.56949    1.000
    Mn4      Mn       0.37033    0.51013    0.85751    1.000
    C201     C        0.26490    0.04240    0.35390    1.000
    C202     C        0.26250    0.97100    0.34800    1.000
    C203     C        0.41340    0.05070    0.17210    1.000
    C204     C        0.45470    0.08720    0.23810    1.000
    C205     C        0.43280    0.95780    0.48360    1.000
    C206     C        0.46520    0.91990    0.41140    1.000
    C207     C        0.53040    0.26010    0.08160    1.000
    C208     C        0.45660    0.26490    0.07740    1.000
    C209     C        0.08530    0.04910    0.19110    1.000
    C210     C        0.04470    0.08530    0.25630    1.000
    C211     C        0.08000    0.96270    0.51880    1.000
    C212     C        0.04480    0.93060    0.44150    1.000
    O81      O        0.21070    0.06950    0.36280    1.000
    O82      O        0.20850    0.94370    0.34770    1.000
    O83      O        0.31710    0.06520    0.34670    1.000
    O84      O        0.31590    0.94390    0.33920    1.000
    O85      O        0.41250    0.06670    0.09470    1.000
    O86      O        0.48750    0.13090    0.21070    1.000
    O87      O        0.37990    0.00840    0.20530    1.000
    O88      O        0.44930    0.07010    0.31570    1.000
    O89      O        0.39900    0.00270    0.45840    1.000
    O90      O        0.45130    0.93740    0.33630    1.000
    O91      O        0.44420    0.94070    0.56050    1.000
    O92      O        0.50370    0.87850    0.42910    1.000
    O93      O        0.55800    0.20840    0.07750    1.000
    O94      O        0.42700    0.21480    0.06720    1.000
    O95      O        0.55890    0.31190    0.09140    1.000
    O96      O        0.43300    0.31610    0.08690    1.000
    O97      O        0.07010    0.05910    0.11070    1.000
    O98      O        0.99930    0.12010    0.22500    1.000
    O99      O        0.12880    0.01580    0.21570    1.000
    O100     O        0.05740    0.07910    0.33430    1.000
    O101     O        0.12050    0.00230    0.49600    1.000
    O102     O        0.05490    0.94050    0.37100    1.000
    O103     O        0.06620    0.94790    0.59310    1.000
    O104     O        0.00040    0.89230    0.47010    1.000
    Cr5      Cr       0.38668    0.00444    0.33304    1.000
    Cr6      Cr       0.99905    0.11889    0.09757    1.000
    Mn5      Mn       0.48780    0.13517    0.06949    1.000
    Mn6      Mn       0.12967    0.01013    0.35751    1.000
    C213     C        0.73510    0.95760    0.85390    1.000
    C214     C        0.73750    0.02900    0.84800    1.000
    C215     C        0.58660    0.94930    0.67210    1.000
    C216     C        0.54530    0.91280    0.73810    1.000
    C217     C        0.56720    0.04220    0.98360    1.000
    C218     C        0.53480    0.08010    0.91140    1.000
    C219     C        0.46960    0.73990    0.58160    1.000
    C220     C        0.54340    0.73510    0.57740    1.000
    C221     C        0.91470    0.95090    0.69110    1.000
    C222     C        0.95530    0.91470    0.75630    1.000
    C223     C        0.92000    0.03730    0.01880    1.000
    C224     C        0.95520    0.06940    0.94150    1.000
    O105     O        0.78930    0.93050    0.86280    1.000
    O106     O        0.79150    0.05630    0.84770    1.000
    O107     O        0.68290    0.93480    0.84670    1.000
    O108     O        0.68410    0.05610    0.83920    1.000
    O109     O        0.58750    0.93330    0.59470    1.000
    O110     O        0.51250    0.86910    0.71070    1.000
    O111     O        0.62010    0.99160    0.70530    1.000
    O112     O        0.55070    0.92990    0.81570    1.000
    O113     O        0.60100    0.99730    0.95840    1.000
    O114     O        0.54870    0.06260    0.83630    1.000
    O115     O        0.55580    0.05930    0.06050    1.000
    O116     O        0.49630    0.12150    0.92910    1.000
    O117     O        0.44200    0.79160    0.57750    1.000
    O118     O        0.57300    0.78520    0.56720    1.000
    O119     O        0.44110    0.68810    0.59140    1.000
    O120     O        0.56700    0.68390    0.58690    1.000
    O121     O        0.92990    0.94090    0.61070    1.000
    O122     O        0.00070    0.87990    0.72500    1.000
    O123     O        0.87120    0.98420    0.71570    1.000
    O124     O        0.94260    0.92090    0.83430    1.000
    O125     O        0.87950    0.99770    0.99600    1.000
    O126     O        0.94510    0.05950    0.87100    1.000
    O127     O        0.93380    0.05210    0.09310    1.000
    O128     O        0.99960    0.10770    0.97010    1.000
    Cr7      Cr       0.61332    0.99556    0.83304    1.000
    Cr8      Cr       0.00095    0.88111    0.59757    1.000
    Mn7      Mn       0.51220    0.86483    0.56949    1.000
    Mn8      Mn       0.87033    0.98987    0.85751    1.000
