# CIF file generated by openbabel 3.1.0, see https://openbabel.org
data_I
_chemical_name_common 'OHAZAZ_clean'
_cell_length_a 7.9626
_cell_length_b 12.1331
_cell_length_c 13.3182
_cell_angle_alpha 111.951
_cell_angle_beta 104.938
_cell_angle_gamma 91.576
_space_group_name_H-M_alt 'P 1'
_space_group_name_Hall 'P 1'
loop_
    _symmetry_equiv_pos_as_xyz
    x,y,z
loop_
    _atom_site_label
    _atom_site_type_symbol
    _atom_site_fract_x
    _atom_site_fract_y
    _atom_site_fract_z
    _atom_site_occupancy
    Gd1      Gd       0.74870    0.98128    0.01058    1.000
    Gd2      Gd       0.25130    0.01872    0.98942    1.000
    H1       H        0.07650    0.15290    0.41570    1.000
    H2       H        0.06790    0.27520    0.40130    1.000
    H3       H        0.29150    0.11230    0.31480    1.000
    H4       H        0.25600    0.22790    0.29040    1.000
    H5       H        0.58630    0.10950    0.67350    1.000
    H6       H        0.69010    0.22600    0.77640    1.000
    H7       H        0.35270    0.12020    0.75140    1.000
    H8       H        0.44820    0.24080    0.85180    1.000
    H9       H        0.61390    0.60140    0.77030    1.000
    H10      H        0.50330    0.61080    0.65840    1.000
    H11      H        0.34760    0.59150    0.82010    1.000
    H12      H        0.25090    0.61720    0.71450    1.000
    H13      H        0.92350    0.84710    0.58430    1.000
    H14      H        0.93210    0.72480    0.59870    1.000
    H15      H        0.70850    0.88770    0.68520    1.000
    H16      H        0.74400    0.77210    0.70960    1.000
    H17      H        0.41370    0.89050    0.32650    1.000
    H18      H        0.30990    0.77400    0.22360    1.000
    H19      H        0.64730    0.87980    0.24860    1.000
    H20      H        0.55180    0.75920    0.14820    1.000
    H21      H        0.38610    0.39860    0.22970    1.000
    H22      H        0.49670    0.38920    0.34160    1.000
    H23      H        0.65240    0.40850    0.17990    1.000
    H24      H        0.74910    0.38280    0.28550    1.000
    C1       C        0.33620    0.39680    0.55520    1.000
    C2       C        0.36400    0.20180    0.56700    1.000
    C3       C        0.53290    0.38170    0.72250    1.000
    C4       C        0.14440    0.21620    0.40920    1.000
    C5       C        0.20340    0.16370    0.30400    1.000
    C6       C        0.05080    0.09220    0.20350    1.000
    C7       C        0.57380    0.18580    0.72850    1.000
    C8       C        0.46670    0.16420    0.80010    1.000
    C9       C        0.55580    0.09470    0.86690    1.000
    C10      C        0.49940    0.57890    0.71480    1.000
    C11      C        0.36210    0.63230    0.77210    1.000
    C12      C        0.40490    0.76510    0.84260    1.000
    C13      C        0.66380    0.60320    0.44480    1.000
    C14      C        0.63600    0.79820    0.43300    1.000
    C15      C        0.46710    0.61830    0.27750    1.000
    C16      C        0.85560    0.78380    0.59080    1.000
    C17      C        0.79660    0.83630    0.69600    1.000
    C18      C        0.94920    0.90780    0.79650    1.000
    C19      C        0.42620    0.81420    0.27150    1.000
    C20      C        0.53330    0.83580    0.19990    1.000
    C21      C        0.44420    0.90530    0.13310    1.000
    C22      C        0.50060    0.42110    0.28520    1.000
    C23      C        0.63790    0.36770    0.22790    1.000
    C24      C        0.59510    0.23490    0.15740    1.000
    N1       N        0.45870    0.44690    0.66010    1.000
    N2       N        0.29010    0.27350    0.51350    1.000
    N3       N        0.48930    0.25960    0.66940    1.000
    N4       N        0.54130    0.55310    0.33990    1.000
    N5       N        0.70990    0.72650    0.48650    1.000
    N6       N        0.51070    0.74040    0.33060    1.000
    O1       O        0.92310    0.04380    0.21460    1.000
    O2       O        0.05480    0.08680    0.10540    1.000
    O3       O        0.55610    0.81550    0.85990    1.000
    O4       O        0.28480    0.81500    0.88000    1.000
    O5       O        0.46800    0.05110    0.91380    1.000
    O6       O        0.71410    0.08280    0.87810    1.000
    O7       O        0.63270    0.43020    0.81650    1.000
    O8       O        0.27220    0.45590    0.50390    1.000
    O9       O        0.32180    0.09410    0.52540    1.000
    O10      O        0.07690    0.95620    0.78540    1.000
    O11      O        0.94520    0.91320    0.89460    1.000
    O12      O        0.44390    0.18450    0.14010    1.000
    O13      O        0.71520    0.18500    0.12000    1.000
    O14      O        0.53200    0.94890    0.08620    1.000
    O15      O        0.28590    0.91720    0.12190    1.000
    O16      O        0.36730    0.56980    0.18350    1.000
    O17      O        0.72780    0.54410    0.49610    1.000
    O18      O        0.67820    0.90590    0.47460    1.000
