# CIF file generated by openbabel 3.1.0, see https://openbabel.org
data_I
_chemical_name_common 'image0'
_cell_length_a 31.8903
_cell_length_b 31.8903
_cell_length_c 17.1915
_cell_angle_alpha 90
_cell_angle_beta 90
_cell_angle_gamma 120
_space_group_name_H-M_alt 'P 1'
_space_group_name_Hall 'P 1'
loop_
    _symmetry_equiv_pos_as_xyz
    x,y,z
loop_
    _atom_site_label
    _atom_site_type_symbol
    _atom_site_fract_x
    _atom_site_fract_y
    _atom_site_fract_z
    _atom_site_occupancy
    In1      In       0.56038    0.49244    0.14792    1.000
    O1       O        0.16520    0.48920    0.65430    1.000
    O2       O        0.55930    0.43250    0.09530    1.000
    O3       O        0.60360    0.40650    0.15840    1.000
    O4       O        0.44720    0.99750    0.68380    1.000
    O5       O        0.09420    0.46360    0.59220    1.000
    O6       O        0.52470    0.49580    0.04390    1.000
    O7       O        0.48740    0.45100    0.18530    1.000
    C1       C        0.25550    0.42760    0.32060    1.000
    H1       H        0.27130    0.42820    0.36710    1.000
    C2       C        0.57140    0.30270    0.82110    1.000
    C3       C        0.49430    0.09990    0.68210    1.000
    H2       H        0.48750    0.08230    0.63540    1.000
    C4       C        0.21070    0.42710    0.32130    1.000
    C5       C        0.55760    0.36060    0.89560    1.000
    H3       H        0.54440    0.36560    0.85000    1.000
    C6       C        0.19120    0.43350    0.39540    1.000
    C7       C        0.13890    0.41510    0.40560    1.000
    H4       H        0.11700    0.39620    0.36640    1.000
    C8       C        0.21950    0.45900    0.45270    1.000
    H5       H        0.25290    0.47070    0.44730    1.000
    C9       C        0.12190    0.42570    0.47380    1.000
    H6       H        0.08860    0.41410    0.47980    1.000
    C10      C        0.57930    0.40710    0.10090    1.000
    C11      C        0.13620    0.46910    0.59740    1.000
    C12      C        0.57630    0.37800    0.02840    1.000
    C13      C        0.59210    0.32140    0.96190    1.000
    H7       H        0.60300    0.29900    0.96280    1.000
    C14      C        0.15250    0.45190    0.53020    1.000
    C15      C        0.20360    0.47010    0.52190    1.000
    H8       H        0.22550    0.48880    0.56120    1.000
    C16      C        0.55770    0.25410    0.82240    1.000
    H9       H        0.55260    0.23750    0.86970    1.000
    C17      C        0.57460    0.32900    0.89330    1.000
    C18      C        0.55910    0.38560    0.96150    1.000
    H10      H        0.54810    0.40800    0.96000    1.000
    C19      C        0.51630    0.14960    0.67850    1.000
    H11      H        0.52150    0.16580    0.63080    1.000
    C20      C        0.59410    0.34570    0.02940    1.000
    H12      H        0.60720    0.34070    0.07520    1.000
    C21      C        0.35500    0.44900    0.31500    1.000
    H13      H        0.34350    0.45890    0.35750    1.000
    C22      C        0.40200    0.45500    0.32200    1.000
    H14      H        0.42210    0.46820    0.36580    1.000
    C23      C        0.34000    0.41900    0.18900    1.000
    H15      H        0.32030    0.40510    0.14550    1.000
    C24      C        0.39200    0.42900    0.31000    1.000
    In2      In       0.50756    0.06794    0.14792    1.000
    O8       O        0.51080    0.67600    0.65430    1.000
    O9       O        0.56750    0.12680    0.09530    1.000
    O10      O        0.59350    0.19710    0.15840    1.000
    O11      O        0.00250    0.44970    0.68380    1.000
    O12      O        0.53640    0.63060    0.59220    1.000
    O13      O        0.50420    0.02890    0.04390    1.000
    O14      O        0.54900    0.03640    0.18530    1.000
    C25      C        0.57240    0.82790    0.32060    1.000
    H16      H        0.57180    0.84310    0.36710    1.000
    C26      C        0.69730    0.26870    0.82110    1.000
    C27      C        0.90010    0.39440    0.68210    1.000
    H17      H        0.91770    0.40520    0.63540    1.000
    C28      C        0.57290    0.78360    0.32130    1.000
    C29      C        0.63940    0.19700    0.89560    1.000
    H18      H        0.63440    0.17880    0.85000    1.000
    C30      C        0.56650    0.75770    0.39540    1.000
    C31      C        0.58490    0.72380    0.40560    1.000
    H19      H        0.60380    0.72080    0.36640    1.000
    C32      C        0.54100    0.76050    0.45270    1.000
    H20      H        0.52930    0.78220    0.44730    1.000
    C33      C        0.57430    0.69620    0.47380    1.000
    H21      H        0.58590    0.67450    0.47980    1.000
    C34      C        0.59290    0.17220    0.10090    1.000
    C35      C        0.53090    0.66710    0.59740    1.000
    C36      C        0.62200    0.19830    0.02840    1.000
    C37      C        0.67860    0.27070    0.96190    1.000
    H22      H        0.70100    0.30400    0.96280    1.000
    C38      C        0.54810    0.70060    0.53020    1.000
    C39      C        0.52990    0.73350    0.52190    1.000
    H23      H        0.51120    0.73670    0.56120    1.000
    C40      C        0.74590    0.30360    0.82240    1.000
    H24      H        0.76250    0.31510    0.86970    1.000
    C41      C        0.67100    0.24560    0.89330    1.000
    C42      C        0.61440    0.17350    0.96150    1.000
    H25      H        0.59200    0.14010    0.96000    1.000
    C43      C        0.85040    0.36670    0.67850    1.000
    H26      H        0.83420    0.35570    0.63080    1.000
    C44      C        0.65430    0.24840    0.02940    1.000
    H27      H        0.65930    0.26650    0.07520    1.000
    C45      C        0.55100    0.90600    0.31500    1.000
    H28      H        0.54110    0.88460    0.35750    1.000
    C46      C        0.54500    0.94700    0.32200    1.000
    H29      H        0.53180    0.95390    0.36580    1.000
    C47      C        0.58100    0.92100    0.18900    1.000
    H30      H        0.59490    0.91520    0.14550    1.000
    C48      C        0.57100    0.96300    0.31000    1.000
    In3      In       0.93206    0.43962    0.14792    1.000
    O15      O        0.32400    0.83480    0.65430    1.000
    O16      O        0.87320    0.44070    0.09530    1.000
    O17      O        0.80290    0.39640    0.15840    1.000
    O18      O        0.55030    0.55280    0.68380    1.000
    O19      O        0.36940    0.90580    0.59220    1.000
    O20      O        0.97110    0.47530    0.04390    1.000
    O21      O        0.96360    0.51260    0.18530    1.000
    C49      C        0.17210    0.74450    0.32060    1.000
    H31      H        0.15690    0.72870    0.36710    1.000
    C50      C        0.73130    0.42860    0.82110    1.000
    C51      C        0.60560    0.50570    0.68210    1.000
    H32      H        0.59480    0.51250    0.63540    1.000
    C52      C        0.21640    0.78930    0.32130    1.000
    C53      C        0.80300    0.44240    0.89560    1.000
    H33      H        0.82120    0.45560    0.85000    1.000
    C54      C        0.24230    0.80880    0.39540    1.000
    C55      C        0.27620    0.86110    0.40560    1.000
    H34      H        0.27920    0.88300    0.36640    1.000
    C56      C        0.23950    0.78050    0.45270    1.000
    H35      H        0.21780    0.74710    0.44730    1.000
    C57      C        0.30380    0.87810    0.47380    1.000
    H36      H        0.32550    0.91140    0.47980    1.000
    C58      C        0.82780    0.42070    0.10090    1.000
    C59      C        0.33290    0.86380    0.59740    1.000
    C60      C        0.80170    0.42370    0.02840    1.000
    C61      C        0.72930    0.40790    0.96190    1.000
    H37      H        0.69600    0.39700    0.96280    1.000
    C62      C        0.29940    0.84750    0.53020    1.000
    C63      C        0.26650    0.79640    0.52190    1.000
    H38      H        0.26330    0.77450    0.56120    1.000
    C64      C        0.69640    0.44230    0.82240    1.000
    H39      H        0.68490    0.44740    0.86970    1.000
    C65      C        0.75440    0.42540    0.89330    1.000
    C66      C        0.82650    0.44090    0.96150    1.000
    H40      H        0.85990    0.45190    0.96000    1.000
    C67      C        0.63330    0.48370    0.67850    1.000
    H41      H        0.64430    0.47850    0.63080    1.000
    C68      C        0.75160    0.40590    0.02940    1.000
    H42      H        0.73350    0.39280    0.07520    1.000
    C69      C        0.09400    0.64500    0.31500    1.000
    H43      H        0.11540    0.65650    0.35750    1.000
    C70      C        0.05300    0.59800    0.32200    1.000
    H44      H        0.04610    0.57790    0.36580    1.000
    C71      C        0.07900    0.66000    0.18900    1.000
    H45      H        0.08480    0.67970    0.14550    1.000
    C72      C        0.03700    0.60800    0.31000    1.000
    In4      In       0.56038    0.49244    0.35208    1.000
    O22      O        0.16520    0.48920    0.84570    1.000
    O23      O        0.55930    0.43250    0.40470    1.000
    O24      O        0.60360    0.40650    0.34160    1.000
    O25      O        0.44720    0.99750    0.81620    1.000
    O26      O        0.09420    0.46360    0.90780    1.000
    O27      O        0.52470    0.49580    0.45610    1.000
    O28      O        0.48740    0.45100    0.31470    1.000
    C73      C        0.25550    0.42760    0.17940    1.000
    H46      H        0.27130    0.42820    0.13290    1.000
    C74      C        0.57140    0.30270    0.67890    1.000
    C75      C        0.49430    0.09990    0.81790    1.000
    H47      H        0.48750    0.08230    0.86460    1.000
    C76      C        0.21070    0.42710    0.17870    1.000
    C77      C        0.55760    0.36060    0.60440    1.000
    H48      H        0.54440    0.36560    0.65000    1.000
    C78      C        0.19120    0.43350    0.10460    1.000
    C79      C        0.13890    0.41510    0.09440    1.000
    H49      H        0.11700    0.39620    0.13360    1.000
    C80      C        0.21950    0.45900    0.04730    1.000
    H50      H        0.25290    0.47070    0.05270    1.000
    C81      C        0.12190    0.42570    0.02620    1.000
    H51      H        0.08860    0.41410    0.02020    1.000
    C82      C        0.57930    0.40710    0.39910    1.000
    C83      C        0.13620    0.46910    0.90260    1.000
    C84      C        0.57630    0.37800    0.47160    1.000
    C85      C        0.59210    0.32140    0.53810    1.000
    H52      H        0.60300    0.29900    0.53720    1.000
    C86      C        0.15250    0.45190    0.96980    1.000
    C87      C        0.20360    0.47010    0.97810    1.000
    H53      H        0.22550    0.48880    0.93880    1.000
    C88      C        0.55770    0.25410    0.67760    1.000
    H54      H        0.55260    0.23750    0.63030    1.000
    C89      C        0.57460    0.32900    0.60670    1.000
    C90      C        0.55910    0.38560    0.53850    1.000
    H55      H        0.54810    0.40800    0.54000    1.000
    C91      C        0.51630    0.14960    0.82150    1.000
    H56      H        0.52150    0.16580    0.86920    1.000
    C92      C        0.59410    0.34570    0.47060    1.000
    H57      H        0.60720    0.34070    0.42480    1.000
    C93      C        0.35500    0.44900    0.18500    1.000
    H58      H        0.34350    0.45890    0.14250    1.000
    C94      C        0.40200    0.45500    0.17800    1.000
    H59      H        0.42210    0.46820    0.13420    1.000
    C95      C        0.34000    0.41900    0.31100    1.000
    H60      H        0.32030    0.40510    0.35450    1.000
    C96      C        0.39200    0.42900    0.19000    1.000
    In5      In       0.50756    0.06794    0.35208    1.000
    O29      O        0.51080    0.67600    0.84570    1.000
    O30      O        0.56750    0.12680    0.40470    1.000
    O31      O        0.59350    0.19710    0.34160    1.000
    O32      O        0.00250    0.44970    0.81620    1.000
    O33      O        0.53640    0.63060    0.90780    1.000
    O34      O        0.50420    0.02890    0.45610    1.000
    O35      O        0.54900    0.03640    0.31470    1.000
    C97      C        0.57240    0.82790    0.17940    1.000
    H61      H        0.57180    0.84310    0.13290    1.000
    C98      C        0.69730    0.26870    0.67890    1.000
    C99      C        0.90010    0.39440    0.81790    1.000
    H62      H        0.91770    0.40520    0.86460    1.000
    C100     C        0.57290    0.78360    0.17870    1.000
    C101     C        0.63940    0.19700    0.60440    1.000
    H63      H        0.63440    0.17880    0.65000    1.000
    C102     C        0.56650    0.75770    0.10460    1.000
    C103     C        0.58490    0.72380    0.09440    1.000
    H64      H        0.60380    0.72080    0.13360    1.000
    C104     C        0.54100    0.76050    0.04730    1.000
    H65      H        0.52930    0.78220    0.05270    1.000
    C105     C        0.57430    0.69620    0.02620    1.000
    H66      H        0.58590    0.67450    0.02020    1.000
    C106     C        0.59290    0.17220    0.39910    1.000
    C107     C        0.53090    0.66710    0.90260    1.000
    C108     C        0.62200    0.19830    0.47160    1.000
    C109     C        0.67860    0.27070    0.53810    1.000
    H67      H        0.70100    0.30400    0.53720    1.000
    C110     C        0.54810    0.70060    0.96980    1.000
    C111     C        0.52990    0.73350    0.97810    1.000
    H68      H        0.51120    0.73670    0.93880    1.000
    C112     C        0.74590    0.30360    0.67760    1.000
    H69      H        0.76250    0.31510    0.63030    1.000
    C113     C        0.67100    0.24560    0.60670    1.000
    C114     C        0.61440    0.17350    0.53850    1.000
    H70      H        0.59200    0.14010    0.54000    1.000
    C115     C        0.85040    0.36670    0.82150    1.000
    H71      H        0.83420    0.35570    0.86920    1.000
    C116     C        0.65430    0.24840    0.47060    1.000
    H72      H        0.65930    0.26650    0.42480    1.000
    C117     C        0.55100    0.90600    0.18500    1.000
    H73      H        0.54110    0.88460    0.14250    1.000
    C118     C        0.54500    0.94700    0.17800    1.000
    H74      H        0.53180    0.95390    0.13420    1.000
    C119     C        0.58100    0.92100    0.31100    1.000
    H75      H        0.59490    0.91520    0.35450    1.000
    C120     C        0.57100    0.96300    0.19000    1.000
    In6      In       0.93206    0.43962    0.35208    1.000
    O36      O        0.32400    0.83480    0.84570    1.000
    O37      O        0.87320    0.44070    0.40470    1.000
    O38      O        0.80290    0.39640    0.34160    1.000
    O39      O        0.55030    0.55280    0.81620    1.000
    O40      O        0.36940    0.90580    0.90780    1.000
    O41      O        0.97110    0.47530    0.45610    1.000
    O42      O        0.96360    0.51260    0.31470    1.000
    C121     C        0.17210    0.74450    0.17940    1.000
    H76      H        0.15690    0.72870    0.13290    1.000
    C122     C        0.73130    0.42860    0.67890    1.000
    C123     C        0.60560    0.50570    0.81790    1.000
    H77      H        0.59480    0.51250    0.86460    1.000
    C124     C        0.21640    0.78930    0.17870    1.000
    C125     C        0.80300    0.44240    0.60440    1.000
    H78      H        0.82120    0.45560    0.65000    1.000
    C126     C        0.24230    0.80880    0.10460    1.000
    C127     C        0.27620    0.86110    0.09440    1.000
    H79      H        0.27920    0.88300    0.13360    1.000
    C128     C        0.23950    0.78050    0.04730    1.000
    H80      H        0.21780    0.74710    0.05270    1.000
    C129     C        0.30380    0.87810    0.02620    1.000
    H81      H        0.32550    0.91140    0.02020    1.000
    C130     C        0.82780    0.42070    0.39910    1.000
    C131     C        0.33290    0.86380    0.90260    1.000
    C132     C        0.80170    0.42370    0.47160    1.000
    C133     C        0.72930    0.40790    0.53810    1.000
    H82      H        0.69600    0.39700    0.53720    1.000
    C134     C        0.29940    0.84750    0.96980    1.000
    C135     C        0.26650    0.79640    0.97810    1.000
    H83      H        0.26330    0.77450    0.93880    1.000
    C136     C        0.69640    0.44230    0.67760    1.000
    H84      H        0.68490    0.44740    0.63030    1.000
    C137     C        0.75440    0.42540    0.60670    1.000
    C138     C        0.82650    0.44090    0.53850    1.000
    H85      H        0.85990    0.45190    0.54000    1.000
    C139     C        0.63330    0.48370    0.82150    1.000
    H86      H        0.64430    0.47850    0.86920    1.000
    C140     C        0.75160    0.40590    0.47060    1.000
    H87      H        0.73350    0.39280    0.42480    1.000
    C141     C        0.09400    0.64500    0.18500    1.000
    H88      H        0.11540    0.65650    0.14250    1.000
    C142     C        0.05300    0.59800    0.17800    1.000
    H89      H        0.04610    0.57790    0.13420    1.000
    C143     C        0.07900    0.66000    0.31100    1.000
    H90      H        0.08480    0.67970    0.35450    1.000
    C144     C        0.03700    0.60800    0.19000    1.000
    In7      In       0.49244    0.56038    0.85208    1.000
    O43      O        0.48920    0.16520    0.34570    1.000
    O44      O        0.43250    0.55930    0.90470    1.000
    O45      O        0.40650    0.60360    0.84160    1.000
    O46      O        0.99750    0.44720    0.31620    1.000
    O47      O        0.46360    0.09420    0.40780    1.000
    O48      O        0.49580    0.52470    0.95610    1.000
    O49      O        0.45100    0.48740    0.81470    1.000
    C145     C        0.42760    0.25550    0.67940    1.000
    H91      H        0.42820    0.27130    0.63290    1.000
    C146     C        0.30270    0.57140    0.17890    1.000
    C147     C        0.09990    0.49430    0.31790    1.000
    H92      H        0.08230    0.48750    0.36460    1.000
    C148     C        0.42710    0.21070    0.67870    1.000
    C149     C        0.36060    0.55760    0.10440    1.000
    H93      H        0.36560    0.54440    0.15000    1.000
    C150     C        0.43350    0.19120    0.60460    1.000
    C151     C        0.41510    0.13890    0.59440    1.000
    H94      H        0.39620    0.11700    0.63360    1.000
    C152     C        0.45900    0.21950    0.54730    1.000
    H95      H        0.47070    0.25290    0.55270    1.000
    C153     C        0.42570    0.12190    0.52620    1.000
    H96      H        0.41410    0.08860    0.52020    1.000
    C154     C        0.40710    0.57930    0.89910    1.000
    C155     C        0.46910    0.13620    0.40260    1.000
    C156     C        0.37800    0.57630    0.97160    1.000
    C157     C        0.32140    0.59210    0.03810    1.000
    H97      H        0.29900    0.60300    0.03720    1.000
    C158     C        0.45190    0.15250    0.46980    1.000
    C159     C        0.47010    0.20360    0.47810    1.000
    H98      H        0.48880    0.22550    0.43880    1.000
    C160     C        0.25410    0.55770    0.17760    1.000
    H99      H        0.23750    0.55260    0.13030    1.000
    C161     C        0.32900    0.57460    0.10670    1.000
    C162     C        0.38560    0.55910    0.03850    1.000
    H100     H        0.40800    0.54810    0.04000    1.000
    C163     C        0.14960    0.51630    0.32150    1.000
    H101     H        0.16580    0.52150    0.36920    1.000
    C164     C        0.34570    0.59410    0.97060    1.000
    H102     H        0.34070    0.60720    0.92480    1.000
    C165     C        0.44900    0.35500    0.68500    1.000
    H103     H        0.45890    0.34350    0.64250    1.000
    C166     C        0.45500    0.40200    0.67800    1.000
    H104     H        0.46820    0.42210    0.63420    1.000
    C167     C        0.41900    0.34000    0.81100    1.000
    H105     H        0.40510    0.32030    0.85450    1.000
    C168     C        0.42900    0.39200    0.69000    1.000
    In8      In       0.06794    0.50756    0.85208    1.000
    O50      O        0.67600    0.51080    0.34570    1.000
    O51      O        0.12680    0.56750    0.90470    1.000
    O52      O        0.19710    0.59350    0.84160    1.000
    O53      O        0.44970    0.00250    0.31620    1.000
    O54      O        0.63060    0.53640    0.40780    1.000
    O55      O        0.02890    0.50420    0.95610    1.000
    O56      O        0.03640    0.54900    0.81470    1.000
    C169     C        0.82790    0.57240    0.67940    1.000
    H106     H        0.84310    0.57180    0.63290    1.000
    C170     C        0.26870    0.69730    0.17890    1.000
    C171     C        0.39440    0.90010    0.31790    1.000
    H107     H        0.40520    0.91770    0.36460    1.000
    C172     C        0.78360    0.57290    0.67870    1.000
    C173     C        0.19700    0.63940    0.10440    1.000
    H108     H        0.17880    0.63440    0.15000    1.000
    C174     C        0.75770    0.56650    0.60460    1.000
    C175     C        0.72380    0.58490    0.59440    1.000
    H109     H        0.72080    0.60380    0.63360    1.000
    C176     C        0.76050    0.54100    0.54730    1.000
    H110     H        0.78220    0.52930    0.55270    1.000
    C177     C        0.69620    0.57430    0.52620    1.000
    H111     H        0.67450    0.58590    0.52020    1.000
    C178     C        0.17220    0.59290    0.89910    1.000
    C179     C        0.66710    0.53090    0.40260    1.000
    C180     C        0.19830    0.62200    0.97160    1.000
    C181     C        0.27070    0.67860    0.03810    1.000
    H112     H        0.30400    0.70100    0.03720    1.000
    C182     C        0.70060    0.54810    0.46980    1.000
    C183     C        0.73350    0.52990    0.47810    1.000
    H113     H        0.73670    0.51120    0.43880    1.000
    C184     C        0.30360    0.74590    0.17760    1.000
    H114     H        0.31510    0.76250    0.13030    1.000
    C185     C        0.24560    0.67100    0.10670    1.000
    C186     C        0.17350    0.61440    0.03850    1.000
    H115     H        0.14010    0.59200    0.04000    1.000
    C187     C        0.36670    0.85040    0.32150    1.000
    H116     H        0.35570    0.83420    0.36920    1.000
    C188     C        0.24840    0.65430    0.97060    1.000
    H117     H        0.26650    0.65930    0.92480    1.000
    C189     C        0.90600    0.55100    0.68500    1.000
    H118     H        0.88460    0.54110    0.64250    1.000
    C190     C        0.94700    0.54500    0.67800    1.000
    H119     H        0.95390    0.53180    0.63420    1.000
    C191     C        0.92100    0.58100    0.81100    1.000
    H120     H        0.91520    0.59490    0.85450    1.000
    C192     C        0.96300    0.57100    0.69000    1.000
    In9      In       0.43962    0.93206    0.85208    1.000
    O57      O        0.83480    0.32400    0.34570    1.000
    O58      O        0.44070    0.87320    0.90470    1.000
    O59      O        0.39640    0.80290    0.84160    1.000
    O60      O        0.55280    0.55030    0.31620    1.000
    O61      O        0.90580    0.36940    0.40780    1.000
    O62      O        0.47530    0.97110    0.95610    1.000
    O63      O        0.51260    0.96360    0.81470    1.000
    C193     C        0.74450    0.17210    0.67940    1.000
    H121     H        0.72870    0.15690    0.63290    1.000
    C194     C        0.42860    0.73130    0.17890    1.000
    C195     C        0.50570    0.60560    0.31790    1.000
    H122     H        0.51250    0.59480    0.36460    1.000
    C196     C        0.78930    0.21640    0.67870    1.000
    C197     C        0.44240    0.80300    0.10440    1.000
    H123     H        0.45560    0.82120    0.15000    1.000
    C198     C        0.80880    0.24230    0.60460    1.000
    C199     C        0.86110    0.27620    0.59440    1.000
    H124     H        0.88300    0.27920    0.63360    1.000
    C200     C        0.78050    0.23950    0.54730    1.000
    H125     H        0.74710    0.21780    0.55270    1.000
    C201     C        0.87810    0.30380    0.52620    1.000
    H126     H        0.91140    0.32550    0.52020    1.000
    C202     C        0.42070    0.82780    0.89910    1.000
    C203     C        0.86380    0.33290    0.40260    1.000
    C204     C        0.42370    0.80170    0.97160    1.000
    C205     C        0.40790    0.72930    0.03810    1.000
    H127     H        0.39700    0.69600    0.03720    1.000
    C206     C        0.84750    0.29940    0.46980    1.000
    C207     C        0.79640    0.26650    0.47810    1.000
    H128     H        0.77450    0.26330    0.43880    1.000
    C208     C        0.44230    0.69640    0.17760    1.000
    H129     H        0.44740    0.68490    0.13030    1.000
    C209     C        0.42540    0.75440    0.10670    1.000
    C210     C        0.44090    0.82650    0.03850    1.000
    H130     H        0.45190    0.85990    0.04000    1.000
    C211     C        0.48370    0.63330    0.32150    1.000
    H131     H        0.47850    0.64430    0.36920    1.000
    C212     C        0.40590    0.75160    0.97060    1.000
    H132     H        0.39280    0.73350    0.92480    1.000
    C213     C        0.64500    0.09400    0.68500    1.000
    H133     H        0.65650    0.11540    0.64250    1.000
    C214     C        0.59800    0.05300    0.67800    1.000
    H134     H        0.57790    0.04610    0.63420    1.000
    C215     C        0.66000    0.07900    0.81100    1.000
    H135     H        0.67970    0.08480    0.85450    1.000
    C216     C        0.60800    0.03700    0.69000    1.000
    In10     In       0.49244    0.56038    0.64792    1.000
    O64      O        0.48920    0.16520    0.15430    1.000
    O65      O        0.43250    0.55930    0.59530    1.000
    O66      O        0.40650    0.60360    0.65840    1.000
    O67      O        0.99750    0.44720    0.18380    1.000
    O68      O        0.46360    0.09420    0.09220    1.000
    O69      O        0.49580    0.52470    0.54390    1.000
    O70      O        0.45100    0.48740    0.68530    1.000
    C217     C        0.42760    0.25550    0.82060    1.000
    H136     H        0.42820    0.27130    0.86710    1.000
    C218     C        0.30270    0.57140    0.32110    1.000
    C219     C        0.09990    0.49430    0.18210    1.000
    H137     H        0.08230    0.48750    0.13540    1.000
    C220     C        0.42710    0.21070    0.82130    1.000
    C221     C        0.36060    0.55760    0.39560    1.000
    H138     H        0.36560    0.54440    0.35000    1.000
    C222     C        0.43350    0.19120    0.89540    1.000
    C223     C        0.41510    0.13890    0.90560    1.000
    H139     H        0.39620    0.11700    0.86640    1.000
    C224     C        0.45900    0.21950    0.95270    1.000
    H140     H        0.47070    0.25290    0.94730    1.000
    C225     C        0.42570    0.12190    0.97380    1.000
    H141     H        0.41410    0.08860    0.97980    1.000
    C226     C        0.40710    0.57930    0.60090    1.000
    C227     C        0.46910    0.13620    0.09740    1.000
    C228     C        0.37800    0.57630    0.52840    1.000
    C229     C        0.32140    0.59210    0.46190    1.000
    H142     H        0.29900    0.60300    0.46280    1.000
    C230     C        0.45190    0.15250    0.03020    1.000
    C231     C        0.47010    0.20360    0.02190    1.000
    H143     H        0.48880    0.22550    0.06120    1.000
    C232     C        0.25410    0.55770    0.32240    1.000
    H144     H        0.23750    0.55260    0.36970    1.000
    C233     C        0.32900    0.57460    0.39330    1.000
    C234     C        0.38560    0.55910    0.46150    1.000
    H145     H        0.40800    0.54810    0.46000    1.000
    C235     C        0.14960    0.51630    0.17850    1.000
    H146     H        0.16580    0.52150    0.13080    1.000
    C236     C        0.34570    0.59410    0.52940    1.000
    H147     H        0.34070    0.60720    0.57520    1.000
    C237     C        0.44900    0.35500    0.81500    1.000
    H148     H        0.45890    0.34350    0.85750    1.000
    C238     C        0.45500    0.40200    0.82200    1.000
    H149     H        0.46820    0.42210    0.86580    1.000
    C239     C        0.41900    0.34000    0.68900    1.000
    H150     H        0.40510    0.32030    0.64550    1.000
    C240     C        0.42900    0.39200    0.81000    1.000
    In11     In       0.06794    0.50756    0.64792    1.000
    O71      O        0.67600    0.51080    0.15430    1.000
    O72      O        0.12680    0.56750    0.59530    1.000
    O73      O        0.19710    0.59350    0.65840    1.000
    O74      O        0.44970    0.00250    0.18380    1.000
    O75      O        0.63060    0.53640    0.09220    1.000
    O76      O        0.02890    0.50420    0.54390    1.000
    O77      O        0.03640    0.54900    0.68530    1.000
    C241     C        0.82790    0.57240    0.82060    1.000
    H151     H        0.84310    0.57180    0.86710    1.000
    C242     C        0.26870    0.69730    0.32110    1.000
    C243     C        0.39440    0.90010    0.18210    1.000
    H152     H        0.40520    0.91770    0.13540    1.000
    C244     C        0.78360    0.57290    0.82130    1.000
    C245     C        0.19700    0.63940    0.39560    1.000
    H153     H        0.17880    0.63440    0.35000    1.000
    C246     C        0.75770    0.56650    0.89540    1.000
    C247     C        0.72380    0.58490    0.90560    1.000
    H154     H        0.72080    0.60380    0.86640    1.000
    C248     C        0.76050    0.54100    0.95270    1.000
    H155     H        0.78220    0.52930    0.94730    1.000
    C249     C        0.69620    0.57430    0.97380    1.000
    H156     H        0.67450    0.58590    0.97980    1.000
    C250     C        0.17220    0.59290    0.60090    1.000
    C251     C        0.66710    0.53090    0.09740    1.000
    C252     C        0.19830    0.62200    0.52840    1.000
    C253     C        0.27070    0.67860    0.46190    1.000
    H157     H        0.30400    0.70100    0.46280    1.000
    C254     C        0.70060    0.54810    0.03020    1.000
    C255     C        0.73350    0.52990    0.02190    1.000
    H158     H        0.73670    0.51120    0.06120    1.000
    C256     C        0.30360    0.74590    0.32240    1.000
    H159     H        0.31510    0.76250    0.36970    1.000
    C257     C        0.24560    0.67100    0.39330    1.000
    C258     C        0.17350    0.61440    0.46150    1.000
    H160     H        0.14010    0.59200    0.46000    1.000
    C259     C        0.36670    0.85040    0.17850    1.000
    H161     H        0.35570    0.83420    0.13080    1.000
    C260     C        0.24840    0.65430    0.52940    1.000
    H162     H        0.26650    0.65930    0.57520    1.000
    C261     C        0.90600    0.55100    0.81500    1.000
    H163     H        0.88460    0.54110    0.85750    1.000
    C262     C        0.94700    0.54500    0.82200    1.000
    H164     H        0.95390    0.53180    0.86580    1.000
    C263     C        0.92100    0.58100    0.68900    1.000
    H165     H        0.91520    0.59490    0.64550    1.000
    C264     C        0.96300    0.57100    0.81000    1.000
    In12     In       0.43962    0.93206    0.64792    1.000
    O78      O        0.83480    0.32400    0.15430    1.000
    O79      O        0.44070    0.87320    0.59530    1.000
    O80      O        0.39640    0.80290    0.65840    1.000
    O81      O        0.55280    0.55030    0.18380    1.000
    O82      O        0.90580    0.36940    0.09220    1.000
    O83      O        0.47530    0.97110    0.54390    1.000
    O84      O        0.51260    0.96360    0.68530    1.000
    C265     C        0.74450    0.17210    0.82060    1.000
    H166     H        0.72870    0.15690    0.86710    1.000
    C266     C        0.42860    0.73130    0.32110    1.000
    C267     C        0.50570    0.60560    0.18210    1.000
    H167     H        0.51250    0.59480    0.13540    1.000
    C268     C        0.78930    0.21640    0.82130    1.000
    C269     C        0.44240    0.80300    0.39560    1.000
    H168     H        0.45560    0.82120    0.35000    1.000
    C270     C        0.80880    0.24230    0.89540    1.000
    C271     C        0.86110    0.27620    0.90560    1.000
    H169     H        0.88300    0.27920    0.86640    1.000
    C272     C        0.78050    0.23950    0.95270    1.000
    H170     H        0.74710    0.21780    0.94730    1.000
    C273     C        0.87810    0.30380    0.97380    1.000
    H171     H        0.91140    0.32550    0.97980    1.000
    C274     C        0.42070    0.82780    0.60090    1.000
    C275     C        0.86380    0.33290    0.09740    1.000
    C276     C        0.42370    0.80170    0.52840    1.000
    C277     C        0.40790    0.72930    0.46190    1.000
    H172     H        0.39700    0.69600    0.46280    1.000
    C278     C        0.84750    0.29940    0.03020    1.000
    C279     C        0.79640    0.26650    0.02190    1.000
    H173     H        0.77450    0.26330    0.06120    1.000
    C280     C        0.44230    0.69640    0.32240    1.000
    H174     H        0.44740    0.68490    0.36970    1.000
    C281     C        0.42540    0.75440    0.39330    1.000
    C282     C        0.44090    0.82650    0.46150    1.000
    H175     H        0.45190    0.85990    0.46000    1.000
    C283     C        0.48370    0.63330    0.17850    1.000
    H176     H        0.47850    0.64430    0.13080    1.000
    C284     C        0.40590    0.75160    0.52940    1.000
    H177     H        0.39280    0.73350    0.57520    1.000
    C285     C        0.64500    0.09400    0.81500    1.000
    H178     H        0.65650    0.11540    0.85750    1.000
    C286     C        0.59800    0.05300    0.82200    1.000
    H179     H        0.57790    0.04610    0.86580    1.000
    C287     C        0.66000    0.07900    0.68900    1.000
    H180     H        0.67970    0.08480    0.64550    1.000
    C288     C        0.60800    0.03700    0.81000    1.000
    In13     In       0.63708    0.46141    0.25000    1.000
    O85      O        0.58920    0.48470    0.25000    1.000
    C289     C        0.27450    0.42720    0.25000    1.000
    C290     C        0.32530    0.43040    0.25000    1.000
    C291     C        0.18840    0.42710    0.25000    1.000
    H181     H        0.15890    0.42700    0.25000    1.000
    C292     C        0.46920    0.44830    0.25000    1.000
    C293     C        0.41450    0.43690    0.25000    1.000
    In14     In       0.53859    0.17567    0.25000    1.000
    O86      O        0.51530    0.10450    0.25000    1.000
    C294     C        0.57280    0.84730    0.25000    1.000
    C295     C        0.56960    0.89490    0.25000    1.000
    C296     C        0.57290    0.76130    0.25000    1.000
    H182     H        0.57300    0.73190    0.25000    1.000
    C297     C        0.55170    0.02090    0.25000    1.000
    C298     C        0.56310    0.97760    0.25000    1.000
    In15     In       0.82433    0.36292    0.25000    1.000
    O87      O        0.89550    0.41080    0.25000    1.000
    C299     C        0.15270    0.72550    0.25000    1.000
    C300     C        0.10510    0.67470    0.25000    1.000
    C301     C        0.23870    0.81160    0.25000    1.000
    H183     H        0.26810    0.84110    0.25000    1.000
    C302     C        0.97910    0.53080    0.25000    1.000
    C303     C        0.02240    0.58550    0.25000    1.000
    In16     In       0.46141    0.63708    0.75000    1.000
    O88      O        0.48470    0.58920    0.75000    1.000
    C304     C        0.42720    0.27450    0.75000    1.000
    C305     C        0.43040    0.32530    0.75000    1.000
    C306     C        0.42710    0.18840    0.75000    1.000
    H184     H        0.42700    0.15890    0.75000    1.000
    C307     C        0.44830    0.46920    0.75000    1.000
    C308     C        0.43690    0.41450    0.75000    1.000
    In17     In       0.17567    0.53859    0.75000    1.000
    O89      O        0.10450    0.51530    0.75000    1.000
    C309     C        0.84730    0.57280    0.75000    1.000
    C310     C        0.89490    0.56960    0.75000    1.000
    C311     C        0.76130    0.57290    0.75000    1.000
    H185     H        0.73190    0.57300    0.75000    1.000
    C312     C        0.02090    0.55170    0.75000    1.000
    C313     C        0.97760    0.56310    0.75000    1.000
    In18     In       0.36292    0.82433    0.75000    1.000
    O90      O        0.41080    0.89550    0.75000    1.000
    C314     C        0.72550    0.15270    0.75000    1.000
    C315     C        0.67470    0.10510    0.75000    1.000
    C316     C        0.81160    0.23870    0.75000    1.000
    H186     H        0.84110    0.26810    0.75000    1.000
    C317     C        0.53080    0.97910    0.75000    1.000
    C318     C        0.58550    0.02240    0.75000    1.000
    C319     C        0.57670    0.32500    0.75000    1.000
    H187     H        0.58450    0.35760    0.75000    1.000
    C320     C        0.55140    0.23020    0.75000    1.000
    C321     C        0.53080    0.17540    0.75000    1.000
    C322     C        0.48210    0.07530    0.75000    1.000
    C323     C        0.45230    0.01730    0.75000    1.000
    C324     C        0.67500    0.25170    0.75000    1.000
    H188     H        0.64240    0.22690    0.75000    1.000
    C325     C        0.76980    0.32120    0.75000    1.000
    C326     C        0.82460    0.35540    0.75000    1.000
    C327     C        0.92470    0.40680    0.75000    1.000
    C328     C        0.98270    0.43500    0.75000    1.000
    C329     C        0.74830    0.42330    0.75000    1.000
    H189     H        0.77310    0.41550    0.75000    1.000
    C330     C        0.67880    0.44860    0.75000    1.000
    C331     C        0.64460    0.46920    0.75000    1.000
    C332     C        0.59320    0.51790    0.75000    1.000
    C333     C        0.56500    0.54770    0.75000    1.000
    C334     C        0.32500    0.57670    0.25000    1.000
    H190     H        0.35760    0.58450    0.25000    1.000
    C335     C        0.23020    0.55140    0.25000    1.000
    C336     C        0.17540    0.53080    0.25000    1.000
    C337     C        0.07530    0.48210    0.25000    1.000
    C338     C        0.01730    0.45230    0.25000    1.000
    C339     C        0.25170    0.67500    0.25000    1.000
    H191     H        0.22690    0.64240    0.25000    1.000
    C340     C        0.32120    0.76980    0.25000    1.000
    C341     C        0.35540    0.82460    0.25000    1.000
    C342     C        0.40680    0.92470    0.25000    1.000
    C343     C        0.43500    0.98270    0.25000    1.000
    C344     C        0.42330    0.74830    0.25000    1.000
    H192     H        0.41550    0.77310    0.25000    1.000
    C345     C        0.44860    0.67880    0.25000    1.000
    C346     C        0.46920    0.64460    0.25000    1.000
    C347     C        0.51790    0.59320    0.25000    1.000
    C348     C        0.54770    0.56500    0.25000    1.000
    C349     C        0.53360    0.53360    0.00000    1.000
    H193     H        0.56300    0.56300    0.00000    1.000
    C350     C        0.46640    0.00000    0.00000    1.000
    H194     H        0.43700    0.00000    0.00000    1.000
    C351     C        0.00000    0.46640    0.00000    1.000
    H195     H        0.00000    0.43700    0.00000    1.000
    C352     C        0.53360    0.53360    0.50000    1.000
    H196     H        0.56300    0.56300    0.50000    1.000
    C353     C        0.46640    0.00000    0.50000    1.000
    H197     H        0.43700    0.00000    0.50000    1.000
    C354     C        0.00000    0.46640    0.50000    1.000
    H198     H        0.00000    0.43700    0.50000    1.000
