# CIF file generated by openbabel 3.1.0, see https://openbabel.org
data_I
_chemical_name_common 'image0'
_cell_length_a 18.3148
_cell_length_b 9.4506
_cell_length_c 19.0993
_cell_angle_alpha 90
_cell_angle_beta 106.091
_cell_angle_gamma 90
_space_group_name_H-M_alt 'P 1'
_space_group_name_Hall 'P 1'
loop_
    _symmetry_equiv_pos_as_xyz
    x,y,z
loop_
    _atom_site_label
    _atom_site_type_symbol
    _atom_site_fract_x
    _atom_site_fract_y
    _atom_site_fract_z
    _atom_site_occupancy
    Cd1      Cd       0.28466    0.55853    0.44455    1.000
    C1       C        0.38004    0.08630    0.09308    1.000
    C2       C        0.37959    0.15150    0.16475    1.000
    C3       C        0.31130    0.19680    0.17503    1.000
    C4       C        0.30833    0.25880    0.23933    1.000
    C5       C        0.37517    0.27660    0.29588    1.000
    C6       C        0.44361    0.22980    0.28643    1.000
    C7       C        0.44600    0.16850    0.22102    1.000
    C8       C        0.37394    0.34540    0.36714    1.000
    C9       C        0.39483    0.77010    0.48272    1.000
    C10      C        0.44883    0.88880    0.49195    1.000
    C11      C        0.44818    0.99900    0.54148    1.000
    C12      C        0.49936    0.10960    0.54875    1.000
    H1       H        0.49890    0.18300    0.58110    1.000
    C13      C        0.02430    0.39320    0.46275    1.000
    H2       H        0.04090    0.32130    0.43760    1.000
    C14      C        0.04346    0.62300    0.51924    1.000
    C15      C        0.06726    0.51330    0.48135    1.000
    C16      C        0.14167    0.52740    0.46053    1.000
    O1       O        0.44388    0.04600    0.08779    1.000
    O2       O        0.31834    0.07340    0.04595    1.000
    O3       O        0.51618    0.12720    0.21771    1.000
    H3       H        0.51290    0.09180    0.17780    1.000
    O4       O        0.23926    0.30530    0.24430    1.000
    H4       H        0.24440    0.34330    0.28400    1.000
    O5       O        0.31091    0.39410    0.36955    1.000
    O6       O        0.43353    0.34829    0.41667    1.000
    O7       O        0.40476    0.66037    0.44812    1.000
    O8       O        0.33763    0.77862    0.50729    1.000
    O9       O        0.39793    0.00230    0.58279    1.000
    H5       H        0.36760    0.93700    0.57080    1.000
    O10      O        0.17904    0.63820    0.47807    1.000
    O11      O        0.16367    0.43000    0.42796    1.000
    O12      O        0.08233    0.74330    0.53670    1.000
    H6       H        0.12100    0.73970    0.52310    1.000
    O13      O        0.24490    0.17690    0.12690    1.000
    H7       H        0.25130    0.13920    0.09040    1.000
    O14      O        0.51100    0.25430    0.33180    1.000
    H8       H        0.50590    0.28910    0.36950    1.000
    Cd2      Cd       0.71534    0.05853    0.05545    1.000
    C17      C        0.61996    0.58630    0.40692    1.000
    C18      C        0.62041    0.65150    0.33525    1.000
    C19      C        0.68870    0.69680    0.32497    1.000
    C20      C        0.69167    0.75880    0.26067    1.000
    C21      C        0.62483    0.77660    0.20412    1.000
    C22      C        0.55639    0.72980    0.21357    1.000
    C23      C        0.55400    0.66850    0.27898    1.000
    C24      C        0.62606    0.84540    0.13286    1.000
    C25      C        0.60517    0.27010    0.01728    1.000
    C26      C        0.55117    0.38880    0.00805    1.000
    C27      C        0.55182    0.49900    0.95852    1.000
    C28      C        0.50064    0.60960    0.95125    1.000
    H9       H        0.50110    0.68300    0.91890    1.000
    C29      C        0.97570    0.89320    0.03725    1.000
    H10      H        0.95910    0.82130    0.06240    1.000
    C30      C        0.95654    0.12300    0.98076    1.000
    C31      C        0.93274    0.01330    0.01865    1.000
    C32      C        0.85833    0.02740    0.03947    1.000
    O15      O        0.55612    0.54600    0.41221    1.000
    O16      O        0.68166    0.57340    0.45405    1.000
    O17      O        0.48382    0.62720    0.28229    1.000
    H11      H        0.48710    0.59180    0.32220    1.000
    O18      O        0.76074    0.80530    0.25570    1.000
    H12      H        0.75560    0.84330    0.21600    1.000
    O19      O        0.68909    0.89410    0.13045    1.000
    O20      O        0.56647    0.84829    0.08333    1.000
    O21      O        0.59524    0.16037    0.05188    1.000
    O22      O        0.66237    0.27862    0.99271    1.000
    O23      O        0.60207    0.50230    0.91721    1.000
    H13      H        0.63240    0.43700    0.92920    1.000
    O24      O        0.82096    0.13820    0.02193    1.000
    O25      O        0.83633    0.93000    0.07204    1.000
    O26      O        0.91767    0.24330    0.96330    1.000
    H14      H        0.87900    0.23970    0.97690    1.000
    O27      O        0.75510    0.67690    0.37310    1.000
    H15      H        0.74870    0.63920    0.40960    1.000
    O28      O        0.48900    0.75430    0.16820    1.000
    H16      H        0.49410    0.78910    0.13050    1.000
    Cd3      Cd       0.71534    0.44147    0.55545    1.000
    C33      C        0.61996    0.91370    0.90692    1.000
    C34      C        0.62041    0.84850    0.83525    1.000
    C35      C        0.68870    0.80320    0.82497    1.000
    C36      C        0.69167    0.74120    0.76067    1.000
    C37      C        0.62483    0.72340    0.70412    1.000
    C38      C        0.55639    0.77020    0.71357    1.000
    C39      C        0.55400    0.83150    0.77898    1.000
    C40      C        0.62606    0.65460    0.63286    1.000
    C41      C        0.60517    0.22990    0.51728    1.000
    C42      C        0.55117    0.11120    0.50805    1.000
    C43      C        0.55182    0.00100    0.45852    1.000
    C44      C        0.50064    0.89040    0.45125    1.000
    H17      H        0.50110    0.81700    0.41890    1.000
    C45      C        0.97570    0.60680    0.53725    1.000
    H18      H        0.95910    0.67870    0.56240    1.000
    C46      C        0.95654    0.37700    0.48076    1.000
    C47      C        0.93274    0.48670    0.51865    1.000
    C48      C        0.85833    0.47260    0.53947    1.000
    O29      O        0.55612    0.95400    0.91221    1.000
    O30      O        0.68166    0.92660    0.95405    1.000
    O31      O        0.48382    0.87280    0.78229    1.000
    H19      H        0.48710    0.90820    0.82220    1.000
    O32      O        0.76074    0.69470    0.75570    1.000
    H20      H        0.75560    0.65670    0.71600    1.000
    O33      O        0.68909    0.60590    0.63045    1.000
    O34      O        0.56647    0.65171    0.58333    1.000
    O35      O        0.59524    0.33963    0.55188    1.000
    O36      O        0.66237    0.22138    0.49271    1.000
    O37      O        0.60207    0.99770    0.41721    1.000
    H21      H        0.63240    0.06300    0.42920    1.000
    O38      O        0.82096    0.36180    0.52193    1.000
    O39      O        0.83633    0.57000    0.57204    1.000
    O40      O        0.91767    0.25670    0.46330    1.000
    H22      H        0.87900    0.26030    0.47690    1.000
    O41      O        0.75510    0.82310    0.87310    1.000
    H23      H        0.74870    0.86080    0.90960    1.000
    O42      O        0.48900    0.74570    0.66820    1.000
    H24      H        0.49410    0.71090    0.63050    1.000
    Cd4      Cd       0.28466    0.94147    0.94455    1.000
    C49      C        0.38004    0.41370    0.59308    1.000
    C50      C        0.37959    0.34850    0.66475    1.000
    C51      C        0.31130    0.30320    0.67503    1.000
    C52      C        0.30833    0.24120    0.73933    1.000
    C53      C        0.37517    0.22340    0.79588    1.000
    C54      C        0.44361    0.27020    0.78643    1.000
    C55      C        0.44600    0.33150    0.72102    1.000
    C56      C        0.37394    0.15460    0.86714    1.000
    C57      C        0.39483    0.72990    0.98272    1.000
    C58      C        0.44883    0.61120    0.99195    1.000
    C59      C        0.44818    0.50100    0.04148    1.000
    C60      C        0.49936    0.39040    0.04875    1.000
    H25      H        0.49890    0.31700    0.08110    1.000
    C61      C        0.02430    0.10680    0.96275    1.000
    H26      H        0.04090    0.17870    0.93760    1.000
    C62      C        0.04346    0.87700    0.01924    1.000
    C63      C        0.06726    0.98670    0.98135    1.000
    C64      C        0.14167    0.97260    0.96053    1.000
    O43      O        0.44388    0.45400    0.58779    1.000
    O44      O        0.31834    0.42660    0.54595    1.000
    O45      O        0.51618    0.37280    0.71771    1.000
    H27      H        0.51290    0.40820    0.67780    1.000
    O46      O        0.23926    0.19470    0.74430    1.000
    H28      H        0.24440    0.15670    0.78400    1.000
    O47      O        0.31091    0.10590    0.86955    1.000
    O48      O        0.43353    0.15171    0.91667    1.000
    O49      O        0.40476    0.83963    0.94812    1.000
    O50      O        0.33763    0.72138    0.00729    1.000
    O51      O        0.39793    0.49770    0.08279    1.000
    H29      H        0.36760    0.56300    0.07080    1.000
    O52      O        0.17904    0.86180    0.97807    1.000
    O53      O        0.16367    0.07000    0.92796    1.000
    O54      O        0.08233    0.75670    0.03670    1.000
    H30      H        0.12100    0.76030    0.02310    1.000
    O55      O        0.24490    0.32310    0.62690    1.000
    H31      H        0.25130    0.36080    0.59040    1.000
    O56      O        0.51100    0.24570    0.83180    1.000
    H32      H        0.50590    0.21090    0.86950    1.000
    Cd5      Cd       0.50000    0.50000    0.50000    1.000
    Cd6      Cd       0.50000    0.00000    0.00000    1.000
