# CIF file generated by openbabel 3.1.0, see https://openbabel.org
data_I
_chemical_name_common 'image0'
_cell_length_a 51.55
_cell_length_b 51.55
_cell_length_c 51.55
_cell_angle_alpha 90
_cell_angle_beta 90
_cell_angle_gamma 90
_space_group_name_H-M_alt 'P 1'
_space_group_name_Hall 'P 1'
loop_
    _symmetry_equiv_pos_as_xyz
    x,y,z
loop_
    _atom_site_label
    _atom_site_type_symbol
    _atom_site_fract_x
    _atom_site_fract_y
    _atom_site_fract_z
    _atom_site_occupancy
    O1       O        0.26428    0.52996    0.18384    1.000
    O2       O        0.29760    0.52840    0.20990    1.000
    C1       C        0.28725    0.53626    0.19247    1.000
    C2       C        0.29329    0.56396    0.18343    1.000
    C3       C        0.31533    0.57155    0.18921    1.000
    H1       H        0.32780    0.55980    0.19610    1.000
    C4       C        0.32251    0.60095    0.18508    1.000
    C5       C        0.34996    0.61239    0.19486    1.000
    C6       C        0.35030    0.63205    0.17179    1.000
    C7       C        0.33157    0.63296    0.15143    1.000
    C8       C        0.31481    0.60943    0.16146    1.000
    C9       C        0.28944    0.60104    0.14396    1.000
    H2       H        0.28210    0.60950    0.12930    1.000
    C10      C        0.34134    0.62268    0.21811    1.000
    H3       H        0.34170    0.60920    0.23150    1.000
    H4       H        0.32360    0.62910    0.21600    1.000
    H5       H        0.35270    0.63710    0.22330    1.000
    C11      C        0.37215    0.59136    0.18938    1.000
    H6       H        0.37350    0.58830    0.17070    1.000
    H7       H        0.36780    0.57510    0.19820    1.000
    H8       H        0.38880    0.59780    0.19590    1.000
    C12      C        0.27992    0.57387    0.15879    1.000
    H9       H        0.26580    0.56430    0.15180    1.000
    O3       O        0.26428    0.02996    0.68384    1.000
    O4       O        0.29760    0.02840    0.70990    1.000
    C13      C        0.28725    0.03626    0.69247    1.000
    C14      C        0.29329    0.06396    0.68343    1.000
    C15      C        0.31533    0.07155    0.68921    1.000
    H10      H        0.32780    0.05980    0.69610    1.000
    C16      C        0.32251    0.10095    0.68508    1.000
    C17      C        0.34996    0.11239    0.69486    1.000
    C18      C        0.35030    0.13205    0.67179    1.000
    C19      C        0.33157    0.13296    0.65143    1.000
    C20      C        0.31481    0.10943    0.66146    1.000
    C21      C        0.28944    0.10104    0.64396    1.000
    H11      H        0.28210    0.10950    0.62930    1.000
    C22      C        0.34134    0.12268    0.71811    1.000
    H12      H        0.34170    0.10920    0.73150    1.000
    H13      H        0.32360    0.12910    0.71600    1.000
    H14      H        0.35270    0.13710    0.72330    1.000
    C23      C        0.37215    0.09136    0.68938    1.000
    H15      H        0.37350    0.08830    0.67070    1.000
    H16      H        0.36780    0.07510    0.69820    1.000
    H17      H        0.38880    0.09780    0.69590    1.000
    C24      C        0.27992    0.07387    0.65879    1.000
    H18      H        0.26580    0.06430    0.65180    1.000
    O5       O        0.76428    0.52996    0.68384    1.000
    O6       O        0.79760    0.52840    0.70990    1.000
    C25      C        0.78725    0.53626    0.69247    1.000
    C26      C        0.79329    0.56396    0.68343    1.000
    C27      C        0.81533    0.57155    0.68921    1.000
    H19      H        0.82780    0.55980    0.69610    1.000
    C28      C        0.82251    0.60095    0.68508    1.000
    C29      C        0.84996    0.61239    0.69486    1.000
    C30      C        0.85030    0.63205    0.67179    1.000
    C31      C        0.83157    0.63296    0.65143    1.000
    C32      C        0.81481    0.60943    0.66146    1.000
    C33      C        0.78944    0.60104    0.64396    1.000
    H20      H        0.78210    0.60950    0.62930    1.000
    C34      C        0.84134    0.62268    0.71811    1.000
    H21      H        0.84170    0.60920    0.73150    1.000
    H22      H        0.82360    0.62910    0.71600    1.000
    H23      H        0.85270    0.63710    0.72330    1.000
    C35      C        0.87215    0.59136    0.68938    1.000
    H24      H        0.87350    0.58830    0.67070    1.000
    H25      H        0.86780    0.57510    0.69820    1.000
    H26      H        0.88880    0.59780    0.69590    1.000
    C36      C        0.77992    0.57387    0.65879    1.000
    H27      H        0.76580    0.56430    0.65180    1.000
    O7       O        0.76428    0.02996    0.18384    1.000
    O8       O        0.79760    0.02840    0.20990    1.000
    C37      C        0.78725    0.03626    0.19247    1.000
    C38      C        0.79329    0.06396    0.18343    1.000
    C39      C        0.81533    0.07155    0.18921    1.000
    H28      H        0.82780    0.05980    0.19610    1.000
    C40      C        0.82251    0.10095    0.18508    1.000
    C41      C        0.84996    0.11239    0.19486    1.000
    C42      C        0.85030    0.13205    0.17179    1.000
    C43      C        0.83157    0.13296    0.15143    1.000
    C44      C        0.81481    0.10943    0.16146    1.000
    C45      C        0.78944    0.10104    0.14396    1.000
    H29      H        0.78210    0.10950    0.12930    1.000
    C46      C        0.84134    0.12268    0.21811    1.000
    H30      H        0.84170    0.10920    0.23150    1.000
    H31      H        0.82360    0.12910    0.21600    1.000
    H32      H        0.85270    0.13710    0.22330    1.000
    C47      C        0.87215    0.09136    0.18938    1.000
    H33      H        0.87350    0.08830    0.17070    1.000
    H34      H        0.86780    0.07510    0.19820    1.000
    H35      H        0.88880    0.09780    0.19590    1.000
    C48      C        0.77992    0.07387    0.15879    1.000
    H36      H        0.76580    0.06430    0.15180    1.000
    O9       O        0.73572    0.47004    0.18384    1.000
    O10      O        0.70240    0.47160    0.20990    1.000
    C49      C        0.71275    0.46374    0.19247    1.000
    C50      C        0.70671    0.43604    0.18343    1.000
    C51      C        0.68467    0.42845    0.18921    1.000
    H37      H        0.67220    0.44020    0.19610    1.000
    C52      C        0.67749    0.39905    0.18508    1.000
    C53      C        0.65004    0.38761    0.19486    1.000
    C54      C        0.64970    0.36795    0.17179    1.000
    C55      C        0.66843    0.36704    0.15143    1.000
    C56      C        0.68519    0.39057    0.16146    1.000
    C57      C        0.71056    0.39896    0.14396    1.000
    H38      H        0.71790    0.39050    0.12930    1.000
    C58      C        0.65866    0.37732    0.21811    1.000
    H39      H        0.65830    0.39080    0.23150    1.000
    H40      H        0.67640    0.37090    0.21600    1.000
    H41      H        0.64730    0.36290    0.22330    1.000
    C59      C        0.62785    0.40864    0.18938    1.000
    H42      H        0.62650    0.41170    0.17070    1.000
    H43      H        0.63220    0.42490    0.19820    1.000
    H44      H        0.61120    0.40220    0.19590    1.000
    C60      C        0.72008    0.42613    0.15879    1.000
    H45      H        0.73420    0.43570    0.15180    1.000
    O11      O        0.73572    0.97004    0.68384    1.000
    O12      O        0.70240    0.97160    0.70990    1.000
    C61      C        0.71275    0.96374    0.69247    1.000
    C62      C        0.70671    0.93604    0.68343    1.000
    C63      C        0.68467    0.92845    0.68921    1.000
    H46      H        0.67220    0.94020    0.69610    1.000
    C64      C        0.67749    0.89905    0.68508    1.000
    C65      C        0.65004    0.88761    0.69486    1.000
    C66      C        0.64970    0.86795    0.67179    1.000
    C67      C        0.66843    0.86704    0.65143    1.000
    C68      C        0.68519    0.89057    0.66146    1.000
    C69      C        0.71056    0.89896    0.64396    1.000
    H47      H        0.71790    0.89050    0.62930    1.000
    C70      C        0.65866    0.87732    0.71811    1.000
    H48      H        0.65830    0.89080    0.73150    1.000
    H49      H        0.67640    0.87090    0.71600    1.000
    H50      H        0.64730    0.86290    0.72330    1.000
    C71      C        0.62785    0.90864    0.68938    1.000
    H51      H        0.62650    0.91170    0.67070    1.000
    H52      H        0.63220    0.92490    0.69820    1.000
    H53      H        0.61120    0.90220    0.69590    1.000
    C72      C        0.72008    0.92613    0.65879    1.000
    H54      H        0.73420    0.93570    0.65180    1.000
    O13      O        0.23572    0.47004    0.68384    1.000
    O14      O        0.20240    0.47160    0.70990    1.000
    C73      C        0.21275    0.46374    0.69247    1.000
    C74      C        0.20671    0.43604    0.68343    1.000
    C75      C        0.18467    0.42845    0.68921    1.000
    H55      H        0.17220    0.44020    0.69610    1.000
    C76      C        0.17749    0.39905    0.68508    1.000
    C77      C        0.15004    0.38761    0.69486    1.000
    C78      C        0.14970    0.36795    0.67179    1.000
    C79      C        0.16843    0.36704    0.65143    1.000
    C80      C        0.18519    0.39057    0.66146    1.000
    C81      C        0.21056    0.39896    0.64396    1.000
    H56      H        0.21790    0.39050    0.62930    1.000
    C82      C        0.15866    0.37732    0.71811    1.000
    H57      H        0.15830    0.39080    0.73150    1.000
    H58      H        0.17640    0.37090    0.71600    1.000
    H59      H        0.14730    0.36290    0.72330    1.000
    C83      C        0.12785    0.40864    0.68938    1.000
    H60      H        0.12650    0.41170    0.67070    1.000
    H61      H        0.13220    0.42490    0.69820    1.000
    H62      H        0.11120    0.40220    0.69590    1.000
    C84      C        0.22008    0.42613    0.65879    1.000
    H63      H        0.23420    0.43570    0.65180    1.000
    O15      O        0.23572    0.97004    0.18384    1.000
    O16      O        0.20240    0.97160    0.20990    1.000
    C85      C        0.21275    0.96374    0.19247    1.000
    C86      C        0.20671    0.93604    0.18343    1.000
    C87      C        0.18467    0.92845    0.18921    1.000
    H64      H        0.17220    0.94020    0.19610    1.000
    C88      C        0.17749    0.89905    0.18508    1.000
    C89      C        0.15004    0.88761    0.19486    1.000
    C90      C        0.14970    0.86795    0.17179    1.000
    C91      C        0.16843    0.86704    0.15143    1.000
    C92      C        0.18519    0.89057    0.16146    1.000
    C93      C        0.21056    0.89896    0.14396    1.000
    H65      H        0.21790    0.89050    0.12930    1.000
    C94      C        0.15866    0.87732    0.21811    1.000
    H66      H        0.15830    0.89080    0.23150    1.000
    H67      H        0.17640    0.87090    0.21600    1.000
    H68      H        0.14730    0.86290    0.22330    1.000
    C95      C        0.12785    0.90864    0.18938    1.000
    H69      H        0.12650    0.91170    0.17070    1.000
    H70      H        0.13220    0.92490    0.19820    1.000
    H71      H        0.11120    0.90220    0.19590    1.000
    C96      C        0.22008    0.92613    0.15879    1.000
    H72      H        0.23420    0.93570    0.15180    1.000
    O17      O        0.73572    0.52996    0.81616    1.000
    O18      O        0.70240    0.52840    0.79010    1.000
    C97      C        0.71275    0.53626    0.80753    1.000
    C98      C        0.70671    0.56396    0.81657    1.000
    C99      C        0.68467    0.57155    0.81079    1.000
    H73      H        0.67220    0.55980    0.80390    1.000
    C100     C        0.67749    0.60095    0.81492    1.000
    C101     C        0.65004    0.61239    0.80514    1.000
    C102     C        0.64970    0.63205    0.82821    1.000
    C103     C        0.66843    0.63296    0.84857    1.000
    C104     C        0.68519    0.60943    0.83854    1.000
    C105     C        0.71056    0.60104    0.85604    1.000
    H74      H        0.71790    0.60950    0.87070    1.000
    C106     C        0.65866    0.62268    0.78189    1.000
    H75      H        0.65830    0.60920    0.76850    1.000
    H76      H        0.67640    0.62910    0.78400    1.000
    H77      H        0.64730    0.63710    0.77670    1.000
    C107     C        0.62785    0.59136    0.81062    1.000
    H78      H        0.62650    0.58830    0.82930    1.000
    H79      H        0.63220    0.57510    0.80180    1.000
    H80      H        0.61120    0.59780    0.80410    1.000
    C108     C        0.72008    0.57387    0.84121    1.000
    H81      H        0.73420    0.56430    0.84820    1.000
    O19      O        0.73572    0.02996    0.31616    1.000
    O20      O        0.70240    0.02840    0.29010    1.000
    C109     C        0.71275    0.03626    0.30753    1.000
    C110     C        0.70671    0.06396    0.31657    1.000
    C111     C        0.68467    0.07155    0.31079    1.000
    H82      H        0.67220    0.05980    0.30390    1.000
    C112     C        0.67749    0.10095    0.31492    1.000
    C113     C        0.65004    0.11239    0.30514    1.000
    C114     C        0.64970    0.13205    0.32821    1.000
    C115     C        0.66843    0.13296    0.34857    1.000
    C116     C        0.68519    0.10943    0.33854    1.000
    C117     C        0.71056    0.10104    0.35604    1.000
    H83      H        0.71790    0.10950    0.37070    1.000
    C118     C        0.65866    0.12268    0.28189    1.000
    H84      H        0.65830    0.10920    0.26850    1.000
    H85      H        0.67640    0.12910    0.28400    1.000
    H86      H        0.64730    0.13710    0.27670    1.000
    C119     C        0.62785    0.09136    0.31062    1.000
    H87      H        0.62650    0.08830    0.32930    1.000
    H88      H        0.63220    0.07510    0.30180    1.000
    H89      H        0.61120    0.09780    0.30410    1.000
    C120     C        0.72008    0.07387    0.34121    1.000
    H90      H        0.73420    0.06430    0.34820    1.000
    O21      O        0.23572    0.52996    0.31616    1.000
    O22      O        0.20240    0.52840    0.29010    1.000
    C121     C        0.21275    0.53626    0.30753    1.000
    C122     C        0.20671    0.56396    0.31657    1.000
    C123     C        0.18467    0.57155    0.31079    1.000
    H91      H        0.17220    0.55980    0.30390    1.000
    C124     C        0.17749    0.60095    0.31492    1.000
    C125     C        0.15004    0.61239    0.30514    1.000
    C126     C        0.14970    0.63205    0.32821    1.000
    C127     C        0.16843    0.63296    0.34857    1.000
    C128     C        0.18519    0.60943    0.33854    1.000
    C129     C        0.21056    0.60104    0.35604    1.000
    H92      H        0.21790    0.60950    0.37070    1.000
    C130     C        0.15866    0.62268    0.28189    1.000
    H93      H        0.15830    0.60920    0.26850    1.000
    H94      H        0.17640    0.62910    0.28400    1.000
    H95      H        0.14730    0.63710    0.27670    1.000
    C131     C        0.12785    0.59136    0.31062    1.000
    H96      H        0.12650    0.58830    0.32930    1.000
    H97      H        0.13220    0.57510    0.30180    1.000
    H98      H        0.11120    0.59780    0.30410    1.000
    C132     C        0.22008    0.57387    0.34121    1.000
    H99      H        0.23420    0.56430    0.34820    1.000
    O23      O        0.23572    0.02996    0.81616    1.000
    O24      O        0.20240    0.02840    0.79010    1.000
    C133     C        0.21275    0.03626    0.80753    1.000
    C134     C        0.20671    0.06396    0.81657    1.000
    C135     C        0.18467    0.07155    0.81079    1.000
    H100     H        0.17220    0.05980    0.80390    1.000
    C136     C        0.17749    0.10095    0.81492    1.000
    C137     C        0.15004    0.11239    0.80514    1.000
    C138     C        0.14970    0.13205    0.82821    1.000
    C139     C        0.16843    0.13296    0.84857    1.000
    C140     C        0.18519    0.10943    0.83854    1.000
    C141     C        0.21056    0.10104    0.85604    1.000
    H101     H        0.21790    0.10950    0.87070    1.000
    C142     C        0.15866    0.12268    0.78189    1.000
    H102     H        0.15830    0.10920    0.76850    1.000
    H103     H        0.17640    0.12910    0.78400    1.000
    H104     H        0.14730    0.13710    0.77670    1.000
    C143     C        0.12785    0.09136    0.81062    1.000
    H105     H        0.12650    0.08830    0.82930    1.000
    H106     H        0.13220    0.07510    0.80180    1.000
    H107     H        0.11120    0.09780    0.80410    1.000
    C144     C        0.22008    0.07387    0.84121    1.000
    H108     H        0.23420    0.06430    0.84820    1.000
    O25      O        0.26428    0.47004    0.81616    1.000
    O26      O        0.29760    0.47160    0.79010    1.000
    C145     C        0.28725    0.46374    0.80753    1.000
    C146     C        0.29329    0.43604    0.81657    1.000
    C147     C        0.31533    0.42845    0.81079    1.000
    H109     H        0.32780    0.44020    0.80390    1.000
    C148     C        0.32251    0.39905    0.81492    1.000
    C149     C        0.34996    0.38761    0.80514    1.000
    C150     C        0.35030    0.36795    0.82821    1.000
    C151     C        0.33157    0.36704    0.84857    1.000
    C152     C        0.31481    0.39057    0.83854    1.000
    C153     C        0.28944    0.39896    0.85604    1.000
    H110     H        0.28210    0.39050    0.87070    1.000
    C154     C        0.34134    0.37732    0.78189    1.000
    H111     H        0.34170    0.39080    0.76850    1.000
    H112     H        0.32360    0.37090    0.78400    1.000
    H113     H        0.35270    0.36290    0.77670    1.000
    C155     C        0.37215    0.40864    0.81062    1.000
    H114     H        0.37350    0.41170    0.82930    1.000
    H115     H        0.36780    0.42490    0.80180    1.000
    H116     H        0.38880    0.40220    0.80410    1.000
    C156     C        0.27992    0.42613    0.84121    1.000
    H117     H        0.26580    0.43570    0.84820    1.000
    O27      O        0.26428    0.97004    0.31616    1.000
    O28      O        0.29760    0.97160    0.29010    1.000
    C157     C        0.28725    0.96374    0.30753    1.000
    C158     C        0.29329    0.93604    0.31657    1.000
    C159     C        0.31533    0.92845    0.31079    1.000
    H118     H        0.32780    0.94020    0.30390    1.000
    C160     C        0.32251    0.89905    0.31492    1.000
    C161     C        0.34996    0.88761    0.30514    1.000
    C162     C        0.35030    0.86795    0.32821    1.000
    C163     C        0.33157    0.86704    0.34857    1.000
    C164     C        0.31481    0.89057    0.33854    1.000
    C165     C        0.28944    0.89896    0.35604    1.000
    H119     H        0.28210    0.89050    0.37070    1.000
    C166     C        0.34134    0.87732    0.28189    1.000
    H120     H        0.34170    0.89080    0.26850    1.000
    H121     H        0.32360    0.87090    0.28400    1.000
    H122     H        0.35270    0.86290    0.27670    1.000
    C167     C        0.37215    0.90864    0.31062    1.000
    H123     H        0.37350    0.91170    0.32930    1.000
    H124     H        0.36780    0.92490    0.30180    1.000
    H125     H        0.38880    0.90220    0.30410    1.000
    C168     C        0.27992    0.92613    0.34121    1.000
    H126     H        0.26580    0.93570    0.34820    1.000
    O29      O        0.76428    0.47004    0.31616    1.000
    O30      O        0.79760    0.47160    0.29010    1.000
    C169     C        0.78725    0.46374    0.30753    1.000
    C170     C        0.79329    0.43604    0.31657    1.000
    C171     C        0.81533    0.42845    0.31079    1.000
    H127     H        0.82780    0.44020    0.30390    1.000
    C172     C        0.82251    0.39905    0.31492    1.000
    C173     C        0.84996    0.38761    0.30514    1.000
    C174     C        0.85030    0.36795    0.32821    1.000
    C175     C        0.83157    0.36704    0.34857    1.000
    C176     C        0.81481    0.39057    0.33854    1.000
    C177     C        0.78944    0.39896    0.35604    1.000
    H128     H        0.78210    0.39050    0.37070    1.000
    C178     C        0.84134    0.37732    0.28189    1.000
    H129     H        0.84170    0.39080    0.26850    1.000
    H130     H        0.82360    0.37090    0.28400    1.000
    H131     H        0.85270    0.36290    0.27670    1.000
    C179     C        0.87215    0.40864    0.31062    1.000
    H132     H        0.87350    0.41170    0.32930    1.000
    H133     H        0.86780    0.42490    0.30180    1.000
    H134     H        0.88880    0.40220    0.30410    1.000
    C180     C        0.77992    0.42613    0.34121    1.000
    H135     H        0.76580    0.43570    0.34820    1.000
    O31      O        0.76428    0.97004    0.81616    1.000
    O32      O        0.79760    0.97160    0.79010    1.000
    C181     C        0.78725    0.96374    0.80753    1.000
    C182     C        0.79329    0.93604    0.81657    1.000
    C183     C        0.81533    0.92845    0.81079    1.000
    H136     H        0.82780    0.94020    0.80390    1.000
    C184     C        0.82251    0.89905    0.81492    1.000
    C185     C        0.84996    0.88761    0.80514    1.000
    C186     C        0.85030    0.86795    0.82821    1.000
    C187     C        0.83157    0.86704    0.84857    1.000
    C188     C        0.81481    0.89057    0.83854    1.000
    C189     C        0.78944    0.89896    0.85604    1.000
    H137     H        0.78210    0.89050    0.87070    1.000
    C190     C        0.84134    0.87732    0.78189    1.000
    H138     H        0.84170    0.89080    0.76850    1.000
    H139     H        0.82360    0.87090    0.78400    1.000
    H140     H        0.85270    0.86290    0.77670    1.000
    C191     C        0.87215    0.90864    0.81062    1.000
    H141     H        0.87350    0.91170    0.82930    1.000
    H142     H        0.86780    0.92490    0.80180    1.000
    H143     H        0.88880    0.90220    0.80410    1.000
    C192     C        0.77992    0.92613    0.84121    1.000
    H144     H        0.76580    0.93570    0.84820    1.000
    O33      O        0.18384    0.26428    0.52996    1.000
    O34      O        0.20990    0.29760    0.52840    1.000
    C193     C        0.19247    0.28725    0.53626    1.000
    C194     C        0.18343    0.29329    0.56396    1.000
    C195     C        0.18921    0.31533    0.57155    1.000
    H145     H        0.19610    0.32780    0.55980    1.000
    C196     C        0.18508    0.32251    0.60095    1.000
    C197     C        0.19486    0.34996    0.61239    1.000
    C198     C        0.17179    0.35030    0.63205    1.000
    C199     C        0.15143    0.33157    0.63296    1.000
    C200     C        0.16146    0.31481    0.60943    1.000
    C201     C        0.14396    0.28944    0.60104    1.000
    H146     H        0.12930    0.28210    0.60950    1.000
    C202     C        0.21811    0.34134    0.62268    1.000
    H147     H        0.23150    0.34170    0.60920    1.000
    H148     H        0.21600    0.32360    0.62910    1.000
    H149     H        0.22330    0.35270    0.63710    1.000
    C203     C        0.18938    0.37215    0.59136    1.000
    H150     H        0.17070    0.37350    0.58830    1.000
    H151     H        0.19820    0.36780    0.57510    1.000
    H152     H        0.19590    0.38880    0.59780    1.000
    C204     C        0.15879    0.27992    0.57387    1.000
    H153     H        0.15180    0.26580    0.56430    1.000
    O35      O        0.18384    0.76428    0.02996    1.000
    O36      O        0.20990    0.79760    0.02840    1.000
    C205     C        0.19247    0.78725    0.03626    1.000
    C206     C        0.18343    0.79329    0.06396    1.000
    C207     C        0.18921    0.81533    0.07155    1.000
    H154     H        0.19610    0.82780    0.05980    1.000
    C208     C        0.18508    0.82251    0.10095    1.000
    C209     C        0.19486    0.84996    0.11239    1.000
    C210     C        0.17179    0.85030    0.13205    1.000
    C211     C        0.15143    0.83157    0.13296    1.000
    C212     C        0.16146    0.81481    0.10943    1.000
    C213     C        0.14396    0.78944    0.10104    1.000
    H155     H        0.12930    0.78210    0.10950    1.000
    C214     C        0.21811    0.84134    0.12268    1.000
    H156     H        0.23150    0.84170    0.10920    1.000
    H157     H        0.21600    0.82360    0.12910    1.000
    H158     H        0.22330    0.85270    0.13710    1.000
    C215     C        0.18938    0.87215    0.09136    1.000
    H159     H        0.17070    0.87350    0.08830    1.000
    H160     H        0.19820    0.86780    0.07510    1.000
    H161     H        0.19590    0.88880    0.09780    1.000
    C216     C        0.15879    0.77992    0.07387    1.000
    H162     H        0.15180    0.76580    0.06430    1.000
    O37      O        0.68384    0.26428    0.02996    1.000
    O38      O        0.70990    0.29760    0.02840    1.000
    C217     C        0.69247    0.28725    0.03626    1.000
    C218     C        0.68343    0.29329    0.06396    1.000
    C219     C        0.68921    0.31533    0.07155    1.000
    H163     H        0.69610    0.32780    0.05980    1.000
    C220     C        0.68508    0.32251    0.10095    1.000
    C221     C        0.69486    0.34996    0.11239    1.000
    C222     C        0.67179    0.35030    0.13205    1.000
    C223     C        0.65143    0.33157    0.13296    1.000
    C224     C        0.66146    0.31481    0.10943    1.000
    C225     C        0.64396    0.28944    0.10104    1.000
    H164     H        0.62930    0.28210    0.10950    1.000
    C226     C        0.71811    0.34134    0.12268    1.000
    H165     H        0.73150    0.34170    0.10920    1.000
    H166     H        0.71600    0.32360    0.12910    1.000
    H167     H        0.72330    0.35270    0.13710    1.000
    C227     C        0.68938    0.37215    0.09136    1.000
    H168     H        0.67070    0.37350    0.08830    1.000
    H169     H        0.69820    0.36780    0.07510    1.000
    H170     H        0.69590    0.38880    0.09780    1.000
    C228     C        0.65879    0.27992    0.07387    1.000
    H171     H        0.65180    0.26580    0.06430    1.000
    O39      O        0.68384    0.76428    0.52996    1.000
    O40      O        0.70990    0.79760    0.52840    1.000
    C229     C        0.69247    0.78725    0.53626    1.000
    C230     C        0.68343    0.79329    0.56396    1.000
    C231     C        0.68921    0.81533    0.57155    1.000
    H172     H        0.69610    0.82780    0.55980    1.000
    C232     C        0.68508    0.82251    0.60095    1.000
    C233     C        0.69486    0.84996    0.61239    1.000
    C234     C        0.67179    0.85030    0.63205    1.000
    C235     C        0.65143    0.83157    0.63296    1.000
    C236     C        0.66146    0.81481    0.60943    1.000
    C237     C        0.64396    0.78944    0.60104    1.000
    H173     H        0.62930    0.78210    0.60950    1.000
    C238     C        0.71811    0.84134    0.62268    1.000
    H174     H        0.73150    0.84170    0.60920    1.000
    H175     H        0.71600    0.82360    0.62910    1.000
    H176     H        0.72330    0.85270    0.63710    1.000
    C239     C        0.68938    0.87215    0.59136    1.000
    H177     H        0.67070    0.87350    0.58830    1.000
    H178     H        0.69820    0.86780    0.57510    1.000
    H179     H        0.69590    0.88880    0.59780    1.000
    C240     C        0.65879    0.77992    0.57387    1.000
    H180     H        0.65180    0.76580    0.56430    1.000
    O41      O        0.18384    0.73572    0.47004    1.000
    O42      O        0.20990    0.70240    0.47160    1.000
    C241     C        0.19247    0.71275    0.46374    1.000
    C242     C        0.18343    0.70671    0.43604    1.000
    C243     C        0.18921    0.68467    0.42845    1.000
    H181     H        0.19610    0.67220    0.44020    1.000
    C244     C        0.18508    0.67749    0.39905    1.000
    C245     C        0.19486    0.65004    0.38761    1.000
    C246     C        0.17179    0.64970    0.36795    1.000
    C247     C        0.15143    0.66843    0.36704    1.000
    C248     C        0.16146    0.68519    0.39057    1.000
    C249     C        0.14396    0.71056    0.39896    1.000
    H182     H        0.12930    0.71790    0.39050    1.000
    C250     C        0.21811    0.65866    0.37732    1.000
    H183     H        0.23150    0.65830    0.39080    1.000
    H184     H        0.21600    0.67640    0.37090    1.000
    H185     H        0.22330    0.64730    0.36290    1.000
    C251     C        0.18938    0.62785    0.40864    1.000
    H186     H        0.17070    0.62650    0.41170    1.000
    H187     H        0.19820    0.63220    0.42490    1.000
    H188     H        0.19590    0.61120    0.40220    1.000
    C252     C        0.15879    0.72008    0.42613    1.000
    H189     H        0.15180    0.73420    0.43570    1.000
    O43      O        0.18384    0.23572    0.97004    1.000
    O44      O        0.20990    0.20240    0.97160    1.000
    C253     C        0.19247    0.21275    0.96374    1.000
    C254     C        0.18343    0.20671    0.93604    1.000
    C255     C        0.18921    0.18467    0.92845    1.000
    H190     H        0.19610    0.17220    0.94020    1.000
    C256     C        0.18508    0.17749    0.89905    1.000
    C257     C        0.19486    0.15004    0.88761    1.000
    C258     C        0.17179    0.14970    0.86795    1.000
    C259     C        0.15143    0.16843    0.86704    1.000
    C260     C        0.16146    0.18519    0.89057    1.000
    C261     C        0.14396    0.21056    0.89896    1.000
    H191     H        0.12930    0.21790    0.89050    1.000
    C262     C        0.21811    0.15866    0.87732    1.000
    H192     H        0.23150    0.15830    0.89080    1.000
    H193     H        0.21600    0.17640    0.87090    1.000
    H194     H        0.22330    0.14730    0.86290    1.000
    C263     C        0.18938    0.12785    0.90864    1.000
    H195     H        0.17070    0.12650    0.91170    1.000
    H196     H        0.19820    0.13220    0.92490    1.000
    H197     H        0.19590    0.11120    0.90220    1.000
    C264     C        0.15879    0.22008    0.92613    1.000
    H198     H        0.15180    0.23420    0.93570    1.000
    O45      O        0.68384    0.73572    0.97004    1.000
    O46      O        0.70990    0.70240    0.97160    1.000
    C265     C        0.69247    0.71275    0.96374    1.000
    C266     C        0.68343    0.70671    0.93604    1.000
    C267     C        0.68921    0.68467    0.92845    1.000
    H199     H        0.69610    0.67220    0.94020    1.000
    C268     C        0.68508    0.67749    0.89905    1.000
    C269     C        0.69486    0.65004    0.88761    1.000
    C270     C        0.67179    0.64970    0.86795    1.000
    C271     C        0.65143    0.66843    0.86704    1.000
    C272     C        0.66146    0.68519    0.89057    1.000
    C273     C        0.64396    0.71056    0.89896    1.000
    H200     H        0.62930    0.71790    0.89050    1.000
    C274     C        0.71811    0.65866    0.87732    1.000
    H201     H        0.73150    0.65830    0.89080    1.000
    H202     H        0.71600    0.67640    0.87090    1.000
    H203     H        0.72330    0.64730    0.86290    1.000
    C275     C        0.68938    0.62785    0.90864    1.000
    H204     H        0.67070    0.62650    0.91170    1.000
    H205     H        0.69820    0.63220    0.92490    1.000
    H206     H        0.69590    0.61120    0.90220    1.000
    C276     C        0.65879    0.72008    0.92613    1.000
    H207     H        0.65180    0.73420    0.93570    1.000
    O47      O        0.68384    0.23572    0.47004    1.000
    O48      O        0.70990    0.20240    0.47160    1.000
    C277     C        0.69247    0.21275    0.46374    1.000
    C278     C        0.68343    0.20671    0.43604    1.000
    C279     C        0.68921    0.18467    0.42845    1.000
    H208     H        0.69610    0.17220    0.44020    1.000
    C280     C        0.68508    0.17749    0.39905    1.000
    C281     C        0.69486    0.15004    0.38761    1.000
    C282     C        0.67179    0.14970    0.36795    1.000
    C283     C        0.65143    0.16843    0.36704    1.000
    C284     C        0.66146    0.18519    0.39057    1.000
    C285     C        0.64396    0.21056    0.39896    1.000
    H209     H        0.62930    0.21790    0.39050    1.000
    C286     C        0.71811    0.15866    0.37732    1.000
    H210     H        0.73150    0.15830    0.39080    1.000
    H211     H        0.71600    0.17640    0.37090    1.000
    H212     H        0.72330    0.14730    0.36290    1.000
    C287     C        0.68938    0.12785    0.40864    1.000
    H213     H        0.67070    0.12650    0.41170    1.000
    H214     H        0.69820    0.13220    0.42490    1.000
    H215     H        0.69590    0.11120    0.40220    1.000
    C288     C        0.65879    0.22008    0.42613    1.000
    H216     H        0.65180    0.23420    0.43570    1.000
    O49      O        0.81616    0.73572    0.52996    1.000
    O50      O        0.79010    0.70240    0.52840    1.000
    C289     C        0.80753    0.71275    0.53626    1.000
    C290     C        0.81657    0.70671    0.56396    1.000
    C291     C        0.81079    0.68467    0.57155    1.000
    H217     H        0.80390    0.67220    0.55980    1.000
    C292     C        0.81492    0.67749    0.60095    1.000
    C293     C        0.80514    0.65004    0.61239    1.000
    C294     C        0.82821    0.64970    0.63205    1.000
    C295     C        0.84857    0.66843    0.63296    1.000
    C296     C        0.83854    0.68519    0.60943    1.000
    C297     C        0.85604    0.71056    0.60104    1.000
    H218     H        0.87070    0.71790    0.60950    1.000
    C298     C        0.78189    0.65866    0.62268    1.000
    H219     H        0.76850    0.65830    0.60920    1.000
    H220     H        0.78400    0.67640    0.62910    1.000
    H221     H        0.77670    0.64730    0.63710    1.000
    C299     C        0.81062    0.62785    0.59136    1.000
    H222     H        0.82930    0.62650    0.58830    1.000
    H223     H        0.80180    0.63220    0.57510    1.000
    H224     H        0.80410    0.61120    0.59780    1.000
    C300     C        0.84121    0.72008    0.57387    1.000
    H225     H        0.84820    0.73420    0.56430    1.000
    O51      O        0.81616    0.23572    0.02996    1.000
    O52      O        0.79010    0.20240    0.02840    1.000
    C301     C        0.80753    0.21275    0.03626    1.000
    C302     C        0.81657    0.20671    0.06396    1.000
    C303     C        0.81079    0.18467    0.07155    1.000
    H226     H        0.80390    0.17220    0.05980    1.000
    C304     C        0.81492    0.17749    0.10095    1.000
    C305     C        0.80514    0.15004    0.11239    1.000
    C306     C        0.82821    0.14970    0.13205    1.000
    C307     C        0.84857    0.16843    0.13296    1.000
    C308     C        0.83854    0.18519    0.10943    1.000
    C309     C        0.85604    0.21056    0.10104    1.000
    H227     H        0.87070    0.21790    0.10950    1.000
    C310     C        0.78189    0.15866    0.12268    1.000
    H228     H        0.76850    0.15830    0.10920    1.000
    H229     H        0.78400    0.17640    0.12910    1.000
    H230     H        0.77670    0.14730    0.13710    1.000
    C311     C        0.81062    0.12785    0.09136    1.000
    H231     H        0.82930    0.12650    0.08830    1.000
    H232     H        0.80180    0.13220    0.07510    1.000
    H233     H        0.80410    0.11120    0.09780    1.000
    C312     C        0.84121    0.22008    0.07387    1.000
    H234     H        0.84820    0.23420    0.06430    1.000
    O53      O        0.31616    0.73572    0.02996    1.000
    O54      O        0.29010    0.70240    0.02840    1.000
    C313     C        0.30753    0.71275    0.03626    1.000
    C314     C        0.31657    0.70671    0.06396    1.000
    C315     C        0.31079    0.68467    0.07155    1.000
    H235     H        0.30390    0.67220    0.05980    1.000
    C316     C        0.31492    0.67749    0.10095    1.000
    C317     C        0.30514    0.65004    0.11239    1.000
    C318     C        0.32821    0.64970    0.13205    1.000
    C319     C        0.34857    0.66843    0.13296    1.000
    C320     C        0.33854    0.68519    0.10943    1.000
    C321     C        0.35604    0.71056    0.10104    1.000
    H236     H        0.37070    0.71790    0.10950    1.000
    C322     C        0.28189    0.65866    0.12268    1.000
    H237     H        0.26850    0.65830    0.10920    1.000
    H238     H        0.28400    0.67640    0.12910    1.000
    H239     H        0.27670    0.64730    0.13710    1.000
    C323     C        0.31062    0.62785    0.09136    1.000
    H240     H        0.32930    0.62650    0.08830    1.000
    H241     H        0.30180    0.63220    0.07510    1.000
    H242     H        0.30410    0.61120    0.09780    1.000
    C324     C        0.34121    0.72008    0.07387    1.000
    H243     H        0.34820    0.73420    0.06430    1.000
    O55      O        0.31616    0.23572    0.52996    1.000
    O56      O        0.29010    0.20240    0.52840    1.000
    C325     C        0.30753    0.21275    0.53626    1.000
    C326     C        0.31657    0.20671    0.56396    1.000
    C327     C        0.31079    0.18467    0.57155    1.000
    H244     H        0.30390    0.17220    0.55980    1.000
    C328     C        0.31492    0.17749    0.60095    1.000
    C329     C        0.30514    0.15004    0.61239    1.000
    C330     C        0.32821    0.14970    0.63205    1.000
    C331     C        0.34857    0.16843    0.63296    1.000
    C332     C        0.33854    0.18519    0.60943    1.000
    C333     C        0.35604    0.21056    0.60104    1.000
    H245     H        0.37070    0.21790    0.60950    1.000
    C334     C        0.28189    0.15866    0.62268    1.000
    H246     H        0.26850    0.15830    0.60920    1.000
    H247     H        0.28400    0.17640    0.62910    1.000
    H248     H        0.27670    0.14730    0.63710    1.000
    C335     C        0.31062    0.12785    0.59136    1.000
    H249     H        0.32930    0.12650    0.58830    1.000
    H250     H        0.30180    0.13220    0.57510    1.000
    H251     H        0.30410    0.11120    0.59780    1.000
    C336     C        0.34121    0.22008    0.57387    1.000
    H252     H        0.34820    0.23420    0.56430    1.000
    O57      O        0.81616    0.26428    0.47004    1.000
    O58      O        0.79010    0.29760    0.47160    1.000
    C337     C        0.80753    0.28725    0.46374    1.000
    C338     C        0.81657    0.29329    0.43604    1.000
    C339     C        0.81079    0.31533    0.42845    1.000
    H253     H        0.80390    0.32780    0.44020    1.000
    C340     C        0.81492    0.32251    0.39905    1.000
    C341     C        0.80514    0.34996    0.38761    1.000
    C342     C        0.82821    0.35030    0.36795    1.000
    C343     C        0.84857    0.33157    0.36704    1.000
    C344     C        0.83854    0.31481    0.39057    1.000
    C345     C        0.85604    0.28944    0.39896    1.000
    H254     H        0.87070    0.28210    0.39050    1.000
    C346     C        0.78189    0.34134    0.37732    1.000
    H255     H        0.76850    0.34170    0.39080    1.000
    H256     H        0.78400    0.32360    0.37090    1.000
    H257     H        0.77670    0.35270    0.36290    1.000
    C347     C        0.81062    0.37215    0.40864    1.000
    H258     H        0.82930    0.37350    0.41170    1.000
    H259     H        0.80180    0.36780    0.42490    1.000
    H260     H        0.80410    0.38880    0.40220    1.000
    C348     C        0.84121    0.27992    0.42613    1.000
    H261     H        0.84820    0.26580    0.43570    1.000
    O59      O        0.81616    0.76428    0.97004    1.000
    O60      O        0.79010    0.79760    0.97160    1.000
    C349     C        0.80753    0.78725    0.96374    1.000
    C350     C        0.81657    0.79329    0.93604    1.000
    C351     C        0.81079    0.81533    0.92845    1.000
    H262     H        0.80390    0.82780    0.94020    1.000
    C352     C        0.81492    0.82251    0.89905    1.000
    C353     C        0.80514    0.84996    0.88761    1.000
    C354     C        0.82821    0.85030    0.86795    1.000
    C355     C        0.84857    0.83157    0.86704    1.000
    C356     C        0.83854    0.81481    0.89057    1.000
    C357     C        0.85604    0.78944    0.89896    1.000
    H263     H        0.87070    0.78210    0.89050    1.000
    C358     C        0.78189    0.84134    0.87732    1.000
    H264     H        0.76850    0.84170    0.89080    1.000
    H265     H        0.78400    0.82360    0.87090    1.000
    H266     H        0.77670    0.85270    0.86290    1.000
    C359     C        0.81062    0.87215    0.90864    1.000
    H267     H        0.82930    0.87350    0.91170    1.000
    H268     H        0.80180    0.86780    0.92490    1.000
    H269     H        0.80410    0.88880    0.90220    1.000
    C360     C        0.84121    0.77992    0.92613    1.000
    H270     H        0.84820    0.76580    0.93570    1.000
    O61      O        0.31616    0.26428    0.97004    1.000
    O62      O        0.29010    0.29760    0.97160    1.000
    C361     C        0.30753    0.28725    0.96374    1.000
    C362     C        0.31657    0.29329    0.93604    1.000
    C363     C        0.31079    0.31533    0.92845    1.000
    H271     H        0.30390    0.32780    0.94020    1.000
    C364     C        0.31492    0.32251    0.89905    1.000
    C365     C        0.30514    0.34996    0.88761    1.000
    C366     C        0.32821    0.35030    0.86795    1.000
    C367     C        0.34857    0.33157    0.86704    1.000
    C368     C        0.33854    0.31481    0.89057    1.000
    C369     C        0.35604    0.28944    0.89896    1.000
    H272     H        0.37070    0.28210    0.89050    1.000
    C370     C        0.28189    0.34134    0.87732    1.000
    H273     H        0.26850    0.34170    0.89080    1.000
    H274     H        0.28400    0.32360    0.87090    1.000
    H275     H        0.27670    0.35270    0.86290    1.000
    C371     C        0.31062    0.37215    0.90864    1.000
    H276     H        0.32930    0.37350    0.91170    1.000
    H277     H        0.30180    0.36780    0.92490    1.000
    H278     H        0.30410    0.38880    0.90220    1.000
    C372     C        0.34121    0.27992    0.92613    1.000
    H279     H        0.34820    0.26580    0.93570    1.000
    O63      O        0.31616    0.76428    0.47004    1.000
    O64      O        0.29010    0.79760    0.47160    1.000
    C373     C        0.30753    0.78725    0.46374    1.000
    C374     C        0.31657    0.79329    0.43604    1.000
    C375     C        0.31079    0.81533    0.42845    1.000
    H280     H        0.30390    0.82780    0.44020    1.000
    C376     C        0.31492    0.82251    0.39905    1.000
    C377     C        0.30514    0.84996    0.38761    1.000
    C378     C        0.32821    0.85030    0.36795    1.000
    C379     C        0.34857    0.83157    0.36704    1.000
    C380     C        0.33854    0.81481    0.39057    1.000
    C381     C        0.35604    0.78944    0.39896    1.000
    H281     H        0.37070    0.78210    0.39050    1.000
    C382     C        0.28189    0.84134    0.37732    1.000
    H282     H        0.26850    0.84170    0.39080    1.000
    H283     H        0.28400    0.82360    0.37090    1.000
    H284     H        0.27670    0.85270    0.36290    1.000
    C383     C        0.31062    0.87215    0.40864    1.000
    H285     H        0.32930    0.87350    0.41170    1.000
    H286     H        0.30180    0.86780    0.42490    1.000
    H287     H        0.30410    0.88880    0.40220    1.000
    C384     C        0.34121    0.77992    0.42613    1.000
    H288     H        0.34820    0.76580    0.43570    1.000
    O65      O        0.52996    0.18384    0.26428    1.000
    O66      O        0.52840    0.20990    0.29760    1.000
    C385     C        0.53626    0.19247    0.28725    1.000
    C386     C        0.56396    0.18343    0.29329    1.000
    C387     C        0.57155    0.18921    0.31533    1.000
    H289     H        0.55980    0.19610    0.32780    1.000
    C388     C        0.60095    0.18508    0.32251    1.000
    C389     C        0.61239    0.19486    0.34996    1.000
    C390     C        0.63205    0.17179    0.35030    1.000
    C391     C        0.63296    0.15143    0.33157    1.000
    C392     C        0.60943    0.16146    0.31481    1.000
    C393     C        0.60104    0.14396    0.28944    1.000
    H290     H        0.60950    0.12930    0.28210    1.000
    C394     C        0.62268    0.21811    0.34134    1.000
    H291     H        0.60920    0.23150    0.34170    1.000
    H292     H        0.62910    0.21600    0.32360    1.000
    H293     H        0.63710    0.22330    0.35270    1.000
    C395     C        0.59136    0.18938    0.37215    1.000
    H294     H        0.58830    0.17070    0.37350    1.000
    H295     H        0.57510    0.19820    0.36780    1.000
    H296     H        0.59780    0.19590    0.38880    1.000
    C396     C        0.57387    0.15879    0.27992    1.000
    H297     H        0.56430    0.15180    0.26580    1.000
    O67      O        0.52996    0.68384    0.76428    1.000
    O68      O        0.52840    0.70990    0.79760    1.000
    C397     C        0.53626    0.69247    0.78725    1.000
    C398     C        0.56396    0.68343    0.79329    1.000
    C399     C        0.57155    0.68921    0.81533    1.000
    H298     H        0.55980    0.69610    0.82780    1.000
    C400     C        0.60095    0.68508    0.82251    1.000
    C401     C        0.61239    0.69486    0.84996    1.000
    C402     C        0.63205    0.67179    0.85030    1.000
    C403     C        0.63296    0.65143    0.83157    1.000
    C404     C        0.60943    0.66146    0.81481    1.000
    C405     C        0.60104    0.64396    0.78944    1.000
    H299     H        0.60950    0.62930    0.78210    1.000
    C406     C        0.62268    0.71811    0.84134    1.000
    H300     H        0.60920    0.73150    0.84170    1.000
    H301     H        0.62910    0.71600    0.82360    1.000
    H302     H        0.63710    0.72330    0.85270    1.000
    C407     C        0.59136    0.68938    0.87215    1.000
    H303     H        0.58830    0.67070    0.87350    1.000
    H304     H        0.57510    0.69820    0.86780    1.000
    H305     H        0.59780    0.69590    0.88880    1.000
    C408     C        0.57387    0.65879    0.77992    1.000
    H306     H        0.56430    0.65180    0.76580    1.000
    O69      O        0.02996    0.18384    0.76428    1.000
    O70      O        0.02840    0.20990    0.79760    1.000
    C409     C        0.03626    0.19247    0.78725    1.000
    C410     C        0.06396    0.18343    0.79329    1.000
    C411     C        0.07155    0.18921    0.81533    1.000
    H307     H        0.05980    0.19610    0.82780    1.000
    C412     C        0.10095    0.18508    0.82251    1.000
    C413     C        0.11239    0.19486    0.84996    1.000
    C414     C        0.13205    0.17179    0.85030    1.000
    C415     C        0.13296    0.15143    0.83157    1.000
    C416     C        0.10943    0.16146    0.81481    1.000
    C417     C        0.10104    0.14396    0.78944    1.000
    H308     H        0.10950    0.12930    0.78210    1.000
    C418     C        0.12268    0.21811    0.84134    1.000
    H309     H        0.10920    0.23150    0.84170    1.000
    H310     H        0.12910    0.21600    0.82360    1.000
    H311     H        0.13710    0.22330    0.85270    1.000
    C419     C        0.09136    0.18938    0.87215    1.000
    H312     H        0.08830    0.17070    0.87350    1.000
    H313     H        0.07510    0.19820    0.86780    1.000
    H314     H        0.09780    0.19590    0.88880    1.000
    C420     C        0.07387    0.15879    0.77992    1.000
    H315     H        0.06430    0.15180    0.76580    1.000
    O71      O        0.02996    0.68384    0.26428    1.000
    O72      O        0.02840    0.70990    0.29760    1.000
    C421     C        0.03626    0.69247    0.28725    1.000
    C422     C        0.06396    0.68343    0.29329    1.000
    C423     C        0.07155    0.68921    0.31533    1.000
    H316     H        0.05980    0.69610    0.32780    1.000
    C424     C        0.10095    0.68508    0.32251    1.000
    C425     C        0.11239    0.69486    0.34996    1.000
    C426     C        0.13205    0.67179    0.35030    1.000
    C427     C        0.13296    0.65143    0.33157    1.000
    C428     C        0.10943    0.66146    0.31481    1.000
    C429     C        0.10104    0.64396    0.28944    1.000
    H317     H        0.10950    0.62930    0.28210    1.000
    C430     C        0.12268    0.71811    0.34134    1.000
    H318     H        0.10920    0.73150    0.34170    1.000
    H319     H        0.12910    0.71600    0.32360    1.000
    H320     H        0.13710    0.72330    0.35270    1.000
    C431     C        0.09136    0.68938    0.37215    1.000
    H321     H        0.08830    0.67070    0.37350    1.000
    H322     H        0.07510    0.69820    0.36780    1.000
    H323     H        0.09780    0.69590    0.38880    1.000
    C432     C        0.07387    0.65879    0.27992    1.000
    H324     H        0.06430    0.65180    0.26580    1.000
    O73      O        0.47004    0.18384    0.73572    1.000
    O74      O        0.47160    0.20990    0.70240    1.000
    C433     C        0.46374    0.19247    0.71275    1.000
    C434     C        0.43604    0.18343    0.70671    1.000
    C435     C        0.42845    0.18921    0.68467    1.000
    H325     H        0.44020    0.19610    0.67220    1.000
    C436     C        0.39905    0.18508    0.67749    1.000
    C437     C        0.38761    0.19486    0.65004    1.000
    C438     C        0.36795    0.17179    0.64970    1.000
    C439     C        0.36704    0.15143    0.66843    1.000
    C440     C        0.39057    0.16146    0.68519    1.000
    C441     C        0.39896    0.14396    0.71056    1.000
    H326     H        0.39050    0.12930    0.71790    1.000
    C442     C        0.37732    0.21811    0.65866    1.000
    H327     H        0.39080    0.23150    0.65830    1.000
    H328     H        0.37090    0.21600    0.67640    1.000
    H329     H        0.36290    0.22330    0.64730    1.000
    C443     C        0.40864    0.18938    0.62785    1.000
    H330     H        0.41170    0.17070    0.62650    1.000
    H331     H        0.42490    0.19820    0.63220    1.000
    H332     H        0.40220    0.19590    0.61120    1.000
    C444     C        0.42613    0.15879    0.72008    1.000
    H333     H        0.43570    0.15180    0.73420    1.000
    O75      O        0.47004    0.68384    0.23572    1.000
    O76      O        0.47160    0.70990    0.20240    1.000
    C445     C        0.46374    0.69247    0.21275    1.000
    C446     C        0.43604    0.68343    0.20671    1.000
    C447     C        0.42845    0.68921    0.18467    1.000
    H334     H        0.44020    0.69610    0.17220    1.000
    C448     C        0.39905    0.68508    0.17749    1.000
    C449     C        0.38761    0.69486    0.15004    1.000
    C450     C        0.36795    0.67179    0.14970    1.000
    C451     C        0.36704    0.65143    0.16843    1.000
    C452     C        0.39057    0.66146    0.18519    1.000
    C453     C        0.39896    0.64396    0.21056    1.000
    H335     H        0.39050    0.62930    0.21790    1.000
    C454     C        0.37732    0.71811    0.15866    1.000
    H336     H        0.39080    0.73150    0.15830    1.000
    H337     H        0.37090    0.71600    0.17640    1.000
    H338     H        0.36290    0.72330    0.14730    1.000
    C455     C        0.40864    0.68938    0.12785    1.000
    H339     H        0.41170    0.67070    0.12650    1.000
    H340     H        0.42490    0.69820    0.13220    1.000
    H341     H        0.40220    0.69590    0.11120    1.000
    C456     C        0.42613    0.65879    0.22008    1.000
    H342     H        0.43570    0.65180    0.23420    1.000
    O77      O        0.97004    0.18384    0.23572    1.000
    O78      O        0.97160    0.20990    0.20240    1.000
    C457     C        0.96374    0.19247    0.21275    1.000
    C458     C        0.93604    0.18343    0.20671    1.000
    C459     C        0.92845    0.18921    0.18467    1.000
    H343     H        0.94020    0.19610    0.17220    1.000
    C460     C        0.89905    0.18508    0.17749    1.000
    C461     C        0.88761    0.19486    0.15004    1.000
    C462     C        0.86795    0.17179    0.14970    1.000
    C463     C        0.86704    0.15143    0.16843    1.000
    C464     C        0.89057    0.16146    0.18519    1.000
    C465     C        0.89896    0.14396    0.21056    1.000
    H344     H        0.89050    0.12930    0.21790    1.000
    C466     C        0.87732    0.21811    0.15866    1.000
    H345     H        0.89080    0.23150    0.15830    1.000
    H346     H        0.87090    0.21600    0.17640    1.000
    H347     H        0.86290    0.22330    0.14730    1.000
    C467     C        0.90864    0.18938    0.12785    1.000
    H348     H        0.91170    0.17070    0.12650    1.000
    H349     H        0.92490    0.19820    0.13220    1.000
    H350     H        0.90220    0.19590    0.11120    1.000
    C468     C        0.92613    0.15879    0.22008    1.000
    H351     H        0.93570    0.15180    0.23420    1.000
    O79      O        0.97004    0.68384    0.73572    1.000
    O80      O        0.97160    0.70990    0.70240    1.000
    C469     C        0.96374    0.69247    0.71275    1.000
    C470     C        0.93604    0.68343    0.70671    1.000
    C471     C        0.92845    0.68921    0.68467    1.000
    H352     H        0.94020    0.69610    0.67220    1.000
    C472     C        0.89905    0.68508    0.67749    1.000
    C473     C        0.88761    0.69486    0.65004    1.000
    C474     C        0.86795    0.67179    0.64970    1.000
    C475     C        0.86704    0.65143    0.66843    1.000
    C476     C        0.89057    0.66146    0.68519    1.000
    C477     C        0.89896    0.64396    0.71056    1.000
    H353     H        0.89050    0.62930    0.71790    1.000
    C478     C        0.87732    0.71811    0.65866    1.000
    H354     H        0.89080    0.73150    0.65830    1.000
    H355     H        0.87090    0.71600    0.67640    1.000
    H356     H        0.86290    0.72330    0.64730    1.000
    C479     C        0.90864    0.68938    0.62785    1.000
    H357     H        0.91170    0.67070    0.62650    1.000
    H358     H        0.92490    0.69820    0.63220    1.000
    H359     H        0.90220    0.69590    0.61120    1.000
    C480     C        0.92613    0.65879    0.72008    1.000
    H360     H        0.93570    0.65180    0.73420    1.000
    O81      O        0.52996    0.81616    0.73572    1.000
    O82      O        0.52840    0.79010    0.70240    1.000
    C481     C        0.53626    0.80753    0.71275    1.000
    C482     C        0.56396    0.81657    0.70671    1.000
    C483     C        0.57155    0.81079    0.68467    1.000
    H361     H        0.55980    0.80390    0.67220    1.000
    C484     C        0.60095    0.81492    0.67749    1.000
    C485     C        0.61239    0.80514    0.65004    1.000
    C486     C        0.63205    0.82821    0.64970    1.000
    C487     C        0.63296    0.84857    0.66843    1.000
    C488     C        0.60943    0.83854    0.68519    1.000
    C489     C        0.60104    0.85604    0.71056    1.000
    H362     H        0.60950    0.87070    0.71790    1.000
    C490     C        0.62268    0.78189    0.65866    1.000
    H363     H        0.60920    0.76850    0.65830    1.000
    H364     H        0.62910    0.78400    0.67640    1.000
    H365     H        0.63710    0.77670    0.64730    1.000
    C491     C        0.59136    0.81062    0.62785    1.000
    H366     H        0.58830    0.82930    0.62650    1.000
    H367     H        0.57510    0.80180    0.63220    1.000
    H368     H        0.59780    0.80410    0.61120    1.000
    C492     C        0.57387    0.84121    0.72008    1.000
    H369     H        0.56430    0.84820    0.73420    1.000
    O83      O        0.52996    0.31616    0.23572    1.000
    O84      O        0.52840    0.29010    0.20240    1.000
    C493     C        0.53626    0.30753    0.21275    1.000
    C494     C        0.56396    0.31657    0.20671    1.000
    C495     C        0.57155    0.31079    0.18467    1.000
    H370     H        0.55980    0.30390    0.17220    1.000
    C496     C        0.60095    0.31492    0.17749    1.000
    C497     C        0.61239    0.30514    0.15004    1.000
    C498     C        0.63205    0.32821    0.14970    1.000
    C499     C        0.63296    0.34857    0.16843    1.000
    C500     C        0.60943    0.33854    0.18519    1.000
    C501     C        0.60104    0.35604    0.21056    1.000
    H371     H        0.60950    0.37070    0.21790    1.000
    C502     C        0.62268    0.28189    0.15866    1.000
    H372     H        0.60920    0.26850    0.15830    1.000
    H373     H        0.62910    0.28400    0.17640    1.000
    H374     H        0.63710    0.27670    0.14730    1.000
    C503     C        0.59136    0.31062    0.12785    1.000
    H375     H        0.58830    0.32930    0.12650    1.000
    H376     H        0.57510    0.30180    0.13220    1.000
    H377     H        0.59780    0.30410    0.11120    1.000
    C504     C        0.57387    0.34121    0.22008    1.000
    H378     H        0.56430    0.34820    0.23420    1.000
    O85      O        0.02996    0.81616    0.23572    1.000
    O86      O        0.02840    0.79010    0.20240    1.000
    C505     C        0.03626    0.80753    0.21275    1.000
    C506     C        0.06396    0.81657    0.20671    1.000
    C507     C        0.07155    0.81079    0.18467    1.000
    H379     H        0.05980    0.80390    0.17220    1.000
    C508     C        0.10095    0.81492    0.17749    1.000
    C509     C        0.11239    0.80514    0.15004    1.000
    C510     C        0.13205    0.82821    0.14970    1.000
    C511     C        0.13296    0.84857    0.16843    1.000
    C512     C        0.10943    0.83854    0.18519    1.000
    C513     C        0.10104    0.85604    0.21056    1.000
    H380     H        0.10950    0.87070    0.21790    1.000
    C514     C        0.12268    0.78189    0.15866    1.000
    H381     H        0.10920    0.76850    0.15830    1.000
    H382     H        0.12910    0.78400    0.17640    1.000
    H383     H        0.13710    0.77670    0.14730    1.000
    C515     C        0.09136    0.81062    0.12785    1.000
    H384     H        0.08830    0.82930    0.12650    1.000
    H385     H        0.07510    0.80180    0.13220    1.000
    H386     H        0.09780    0.80410    0.11120    1.000
    C516     C        0.07387    0.84121    0.22008    1.000
    H387     H        0.06430    0.84820    0.23420    1.000
    O87      O        0.02996    0.31616    0.73572    1.000
    O88      O        0.02840    0.29010    0.70240    1.000
    C517     C        0.03626    0.30753    0.71275    1.000
    C518     C        0.06396    0.31657    0.70671    1.000
    C519     C        0.07155    0.31079    0.68467    1.000
    H388     H        0.05980    0.30390    0.67220    1.000
    C520     C        0.10095    0.31492    0.67749    1.000
    C521     C        0.11239    0.30514    0.65004    1.000
    C522     C        0.13205    0.32821    0.64970    1.000
    C523     C        0.13296    0.34857    0.66843    1.000
    C524     C        0.10943    0.33854    0.68519    1.000
    C525     C        0.10104    0.35604    0.71056    1.000
    H389     H        0.10950    0.37070    0.71790    1.000
    C526     C        0.12268    0.28189    0.65866    1.000
    H390     H        0.10920    0.26850    0.65830    1.000
    H391     H        0.12910    0.28400    0.67640    1.000
    H392     H        0.13710    0.27670    0.64730    1.000
    C527     C        0.09136    0.31062    0.62785    1.000
    H393     H        0.08830    0.32930    0.62650    1.000
    H394     H        0.07510    0.30180    0.63220    1.000
    H395     H        0.09780    0.30410    0.61120    1.000
    C528     C        0.07387    0.34121    0.72008    1.000
    H396     H        0.06430    0.34820    0.73420    1.000
    O89      O        0.47004    0.81616    0.26428    1.000
    O90      O        0.47160    0.79010    0.29760    1.000
    C529     C        0.46374    0.80753    0.28725    1.000
    C530     C        0.43604    0.81657    0.29329    1.000
    C531     C        0.42845    0.81079    0.31533    1.000
    H397     H        0.44020    0.80390    0.32780    1.000
    C532     C        0.39905    0.81492    0.32251    1.000
    C533     C        0.38761    0.80514    0.34996    1.000
    C534     C        0.36795    0.82821    0.35030    1.000
    C535     C        0.36704    0.84857    0.33157    1.000
    C536     C        0.39057    0.83854    0.31481    1.000
    C537     C        0.39896    0.85604    0.28944    1.000
    H398     H        0.39050    0.87070    0.28210    1.000
    C538     C        0.37732    0.78189    0.34134    1.000
    H399     H        0.39080    0.76850    0.34170    1.000
    H400     H        0.37090    0.78400    0.32360    1.000
    H401     H        0.36290    0.77670    0.35270    1.000
    C539     C        0.40864    0.81062    0.37215    1.000
    H402     H        0.41170    0.82930    0.37350    1.000
    H403     H        0.42490    0.80180    0.36780    1.000
    H404     H        0.40220    0.80410    0.38880    1.000
    C540     C        0.42613    0.84121    0.27992    1.000
    H405     H        0.43570    0.84820    0.26580    1.000
    O91      O        0.47004    0.31616    0.76428    1.000
    O92      O        0.47160    0.29010    0.79760    1.000
    C541     C        0.46374    0.30753    0.78725    1.000
    C542     C        0.43604    0.31657    0.79329    1.000
    C543     C        0.42845    0.31079    0.81533    1.000
    H406     H        0.44020    0.30390    0.82780    1.000
    C544     C        0.39905    0.31492    0.82251    1.000
    C545     C        0.38761    0.30514    0.84996    1.000
    C546     C        0.36795    0.32821    0.85030    1.000
    C547     C        0.36704    0.34857    0.83157    1.000
    C548     C        0.39057    0.33854    0.81481    1.000
    C549     C        0.39896    0.35604    0.78944    1.000
    H407     H        0.39050    0.37070    0.78210    1.000
    C550     C        0.37732    0.28189    0.84134    1.000
    H408     H        0.39080    0.26850    0.84170    1.000
    H409     H        0.37090    0.28400    0.82360    1.000
    H410     H        0.36290    0.27670    0.85270    1.000
    C551     C        0.40864    0.31062    0.87215    1.000
    H411     H        0.41170    0.32930    0.87350    1.000
    H412     H        0.42490    0.30180    0.86780    1.000
    H413     H        0.40220    0.30410    0.88880    1.000
    C552     C        0.42613    0.34121    0.77992    1.000
    H414     H        0.43570    0.34820    0.76580    1.000
    O93      O        0.97004    0.81616    0.76428    1.000
    O94      O        0.97160    0.79010    0.79760    1.000
    C553     C        0.96374    0.80753    0.78725    1.000
    C554     C        0.93604    0.81657    0.79329    1.000
    C555     C        0.92845    0.81079    0.81533    1.000
    H415     H        0.94020    0.80390    0.82780    1.000
    C556     C        0.89905    0.81492    0.82251    1.000
    C557     C        0.88761    0.80514    0.84996    1.000
    C558     C        0.86795    0.82821    0.85030    1.000
    C559     C        0.86704    0.84857    0.83157    1.000
    C560     C        0.89057    0.83854    0.81481    1.000
    C561     C        0.89896    0.85604    0.78944    1.000
    H416     H        0.89050    0.87070    0.78210    1.000
    C562     C        0.87732    0.78189    0.84134    1.000
    H417     H        0.89080    0.76850    0.84170    1.000
    H418     H        0.87090    0.78400    0.82360    1.000
    H419     H        0.86290    0.77670    0.85270    1.000
    C563     C        0.90864    0.81062    0.87215    1.000
    H420     H        0.91170    0.82930    0.87350    1.000
    H421     H        0.92490    0.80180    0.86780    1.000
    H422     H        0.90220    0.80410    0.88880    1.000
    C564     C        0.92613    0.84121    0.77992    1.000
    H423     H        0.93570    0.84820    0.76580    1.000
    O95      O        0.97004    0.31616    0.26428    1.000
    O96      O        0.97160    0.29010    0.29760    1.000
    C565     C        0.96374    0.30753    0.28725    1.000
    C566     C        0.93604    0.31657    0.29329    1.000
    C567     C        0.92845    0.31079    0.31533    1.000
    H424     H        0.94020    0.30390    0.32780    1.000
    C568     C        0.89905    0.31492    0.32251    1.000
    C569     C        0.88761    0.30514    0.34996    1.000
    C570     C        0.86795    0.32821    0.35030    1.000
    C571     C        0.86704    0.34857    0.33157    1.000
    C572     C        0.89057    0.33854    0.31481    1.000
    C573     C        0.89896    0.35604    0.28944    1.000
    H425     H        0.89050    0.37070    0.28210    1.000
    C574     C        0.87732    0.28189    0.34134    1.000
    H426     H        0.89080    0.26850    0.34170    1.000
    H427     H        0.87090    0.28400    0.32360    1.000
    H428     H        0.86290    0.27670    0.35270    1.000
    C575     C        0.90864    0.31062    0.37215    1.000
    H429     H        0.91170    0.32930    0.37350    1.000
    H430     H        0.92490    0.30180    0.36780    1.000
    H431     H        0.90220    0.30410    0.38880    1.000
    C576     C        0.92613    0.34121    0.27992    1.000
    H432     H        0.93570    0.34820    0.26580    1.000
    O97      O        0.02996    0.76428    0.31616    1.000
    O98      O        0.02840    0.79760    0.29010    1.000
    C577     C        0.03626    0.78725    0.30753    1.000
    C578     C        0.06396    0.79329    0.31657    1.000
    C579     C        0.07155    0.81533    0.31079    1.000
    H433     H        0.05980    0.82780    0.30390    1.000
    C580     C        0.10095    0.82251    0.31492    1.000
    C581     C        0.11239    0.84996    0.30514    1.000
    C582     C        0.13205    0.85030    0.32821    1.000
    C583     C        0.13296    0.83157    0.34857    1.000
    C584     C        0.10943    0.81481    0.33854    1.000
    C585     C        0.10104    0.78944    0.35604    1.000
    H434     H        0.10950    0.78210    0.37070    1.000
    C586     C        0.12268    0.84134    0.28189    1.000
    H435     H        0.10920    0.84170    0.26850    1.000
    H436     H        0.12910    0.82360    0.28400    1.000
    H437     H        0.13710    0.85270    0.27670    1.000
    C587     C        0.09136    0.87215    0.31062    1.000
    H438     H        0.08830    0.87350    0.32930    1.000
    H439     H        0.07510    0.86780    0.30180    1.000
    H440     H        0.09780    0.88880    0.30410    1.000
    C588     C        0.07387    0.77992    0.34121    1.000
    H441     H        0.06430    0.76580    0.34820    1.000
    O99      O        0.02996    0.26428    0.81616    1.000
    O100     O        0.02840    0.29760    0.79010    1.000
    C589     C        0.03626    0.28725    0.80753    1.000
    C590     C        0.06396    0.29329    0.81657    1.000
    C591     C        0.07155    0.31533    0.81079    1.000
    H442     H        0.05980    0.32780    0.80390    1.000
    C592     C        0.10095    0.32251    0.81492    1.000
    C593     C        0.11239    0.34996    0.80514    1.000
    C594     C        0.13205    0.35030    0.82821    1.000
    C595     C        0.13296    0.33157    0.84857    1.000
    C596     C        0.10943    0.31481    0.83854    1.000
    C597     C        0.10104    0.28944    0.85604    1.000
    H443     H        0.10950    0.28210    0.87070    1.000
    C598     C        0.12268    0.34134    0.78189    1.000
    H444     H        0.10920    0.34170    0.76850    1.000
    H445     H        0.12910    0.32360    0.78400    1.000
    H446     H        0.13710    0.35270    0.77670    1.000
    C599     C        0.09136    0.37215    0.81062    1.000
    H447     H        0.08830    0.37350    0.82930    1.000
    H448     H        0.07510    0.36780    0.80180    1.000
    H449     H        0.09780    0.38880    0.80410    1.000
    C600     C        0.07387    0.27992    0.84121    1.000
    H450     H        0.06430    0.26580    0.84820    1.000
    O101     O        0.52996    0.76428    0.81616    1.000
    O102     O        0.52840    0.79760    0.79010    1.000
    C601     C        0.53626    0.78725    0.80753    1.000
    C602     C        0.56396    0.79329    0.81657    1.000
    C603     C        0.57155    0.81533    0.81079    1.000
    H451     H        0.55980    0.82780    0.80390    1.000
    C604     C        0.60095    0.82251    0.81492    1.000
    C605     C        0.61239    0.84996    0.80514    1.000
    C606     C        0.63205    0.85030    0.82821    1.000
    C607     C        0.63296    0.83157    0.84857    1.000
    C608     C        0.60943    0.81481    0.83854    1.000
    C609     C        0.60104    0.78944    0.85604    1.000
    H452     H        0.60950    0.78210    0.87070    1.000
    C610     C        0.62268    0.84134    0.78189    1.000
    H453     H        0.60920    0.84170    0.76850    1.000
    H454     H        0.62910    0.82360    0.78400    1.000
    H455     H        0.63710    0.85270    0.77670    1.000
    C611     C        0.59136    0.87215    0.81062    1.000
    H456     H        0.58830    0.87350    0.82930    1.000
    H457     H        0.57510    0.86780    0.80180    1.000
    H458     H        0.59780    0.88880    0.80410    1.000
    C612     C        0.57387    0.77992    0.84121    1.000
    H459     H        0.56430    0.76580    0.84820    1.000
    O103     O        0.52996    0.26428    0.31616    1.000
    O104     O        0.52840    0.29760    0.29010    1.000
    C613     C        0.53626    0.28725    0.30753    1.000
    C614     C        0.56396    0.29329    0.31657    1.000
    C615     C        0.57155    0.31533    0.31079    1.000
    H460     H        0.55980    0.32780    0.30390    1.000
    C616     C        0.60095    0.32251    0.31492    1.000
    C617     C        0.61239    0.34996    0.30514    1.000
    C618     C        0.63205    0.35030    0.32821    1.000
    C619     C        0.63296    0.33157    0.34857    1.000
    C620     C        0.60943    0.31481    0.33854    1.000
    C621     C        0.60104    0.28944    0.35604    1.000
    H461     H        0.60950    0.28210    0.37070    1.000
    C622     C        0.62268    0.34134    0.28189    1.000
    H462     H        0.60920    0.34170    0.26850    1.000
    H463     H        0.62910    0.32360    0.28400    1.000
    H464     H        0.63710    0.35270    0.27670    1.000
    C623     C        0.59136    0.37215    0.31062    1.000
    H465     H        0.58830    0.37350    0.32930    1.000
    H466     H        0.57510    0.36780    0.30180    1.000
    H467     H        0.59780    0.38880    0.30410    1.000
    C624     C        0.57387    0.27992    0.34121    1.000
    H468     H        0.56430    0.26580    0.34820    1.000
    O105     O        0.97004    0.23572    0.31616    1.000
    O106     O        0.97160    0.20240    0.29010    1.000
    C625     C        0.96374    0.21275    0.30753    1.000
    C626     C        0.93604    0.20671    0.31657    1.000
    C627     C        0.92845    0.18467    0.31079    1.000
    H469     H        0.94020    0.17220    0.30390    1.000
    C628     C        0.89905    0.17749    0.31492    1.000
    C629     C        0.88761    0.15004    0.30514    1.000
    C630     C        0.86795    0.14970    0.32821    1.000
    C631     C        0.86704    0.16843    0.34857    1.000
    C632     C        0.89057    0.18519    0.33854    1.000
    C633     C        0.89896    0.21056    0.35604    1.000
    H470     H        0.89050    0.21790    0.37070    1.000
    C634     C        0.87732    0.15866    0.28189    1.000
    H471     H        0.89080    0.15830    0.26850    1.000
    H472     H        0.87090    0.17640    0.28400    1.000
    H473     H        0.86290    0.14730    0.27670    1.000
    C635     C        0.90864    0.12785    0.31062    1.000
    H474     H        0.91170    0.12650    0.32930    1.000
    H475     H        0.92490    0.13220    0.30180    1.000
    H476     H        0.90220    0.11120    0.30410    1.000
    C636     C        0.92613    0.22008    0.34121    1.000
    H477     H        0.93570    0.23420    0.34820    1.000
    O107     O        0.97004    0.73572    0.81616    1.000
    O108     O        0.97160    0.70240    0.79010    1.000
    C637     C        0.96374    0.71275    0.80753    1.000
    C638     C        0.93604    0.70671    0.81657    1.000
    C639     C        0.92845    0.68467    0.81079    1.000
    H478     H        0.94020    0.67220    0.80390    1.000
    C640     C        0.89905    0.67749    0.81492    1.000
    C641     C        0.88761    0.65004    0.80514    1.000
    C642     C        0.86795    0.64970    0.82821    1.000
    C643     C        0.86704    0.66843    0.84857    1.000
    C644     C        0.89057    0.68519    0.83854    1.000
    C645     C        0.89896    0.71056    0.85604    1.000
    H479     H        0.89050    0.71790    0.87070    1.000
    C646     C        0.87732    0.65866    0.78189    1.000
    H480     H        0.89080    0.65830    0.76850    1.000
    H481     H        0.87090    0.67640    0.78400    1.000
    H482     H        0.86290    0.64730    0.77670    1.000
    C647     C        0.90864    0.62785    0.81062    1.000
    H483     H        0.91170    0.62650    0.82930    1.000
    H484     H        0.92490    0.63220    0.80180    1.000
    H485     H        0.90220    0.61120    0.80410    1.000
    C648     C        0.92613    0.72008    0.84121    1.000
    H486     H        0.93570    0.73420    0.84820    1.000
    O109     O        0.47004    0.23572    0.81616    1.000
    O110     O        0.47160    0.20240    0.79010    1.000
    C649     C        0.46374    0.21275    0.80753    1.000
    C650     C        0.43604    0.20671    0.81657    1.000
    C651     C        0.42845    0.18467    0.81079    1.000
    H487     H        0.44020    0.17220    0.80390    1.000
    C652     C        0.39905    0.17749    0.81492    1.000
    C653     C        0.38761    0.15004    0.80514    1.000
    C654     C        0.36795    0.14970    0.82821    1.000
    C655     C        0.36704    0.16843    0.84857    1.000
    C656     C        0.39057    0.18519    0.83854    1.000
    C657     C        0.39896    0.21056    0.85604    1.000
    H488     H        0.39050    0.21790    0.87070    1.000
    C658     C        0.37732    0.15866    0.78189    1.000
    H489     H        0.39080    0.15830    0.76850    1.000
    H490     H        0.37090    0.17640    0.78400    1.000
    H491     H        0.36290    0.14730    0.77670    1.000
    C659     C        0.40864    0.12785    0.81062    1.000
    H492     H        0.41170    0.12650    0.82930    1.000
    H493     H        0.42490    0.13220    0.80180    1.000
    H494     H        0.40220    0.11120    0.80410    1.000
    C660     C        0.42613    0.22008    0.84121    1.000
    H495     H        0.43570    0.23420    0.84820    1.000
    O111     O        0.47004    0.73572    0.31616    1.000
    O112     O        0.47160    0.70240    0.29010    1.000
    C661     C        0.46374    0.71275    0.30753    1.000
    C662     C        0.43604    0.70671    0.31657    1.000
    C663     C        0.42845    0.68467    0.31079    1.000
    H496     H        0.44020    0.67220    0.30390    1.000
    C664     C        0.39905    0.67749    0.31492    1.000
    C665     C        0.38761    0.65004    0.30514    1.000
    C666     C        0.36795    0.64970    0.32821    1.000
    C667     C        0.36704    0.66843    0.34857    1.000
    C668     C        0.39057    0.68519    0.33854    1.000
    C669     C        0.39896    0.71056    0.35604    1.000
    H497     H        0.39050    0.71790    0.37070    1.000
    C670     C        0.37732    0.65866    0.28189    1.000
    H498     H        0.39080    0.65830    0.26850    1.000
    H499     H        0.37090    0.67640    0.28400    1.000
    H500     H        0.36290    0.64730    0.27670    1.000
    C671     C        0.40864    0.62785    0.31062    1.000
    H501     H        0.41170    0.62650    0.32930    1.000
    H502     H        0.42490    0.63220    0.30180    1.000
    H503     H        0.40220    0.61120    0.30410    1.000
    C672     C        0.42613    0.72008    0.34121    1.000
    H504     H        0.43570    0.73420    0.34820    1.000
    O113     O        0.02996    0.23572    0.68384    1.000
    O114     O        0.02840    0.20240    0.70990    1.000
    C673     C        0.03626    0.21275    0.69247    1.000
    C674     C        0.06396    0.20671    0.68343    1.000
    C675     C        0.07155    0.18467    0.68921    1.000
    H505     H        0.05980    0.17220    0.69610    1.000
    C676     C        0.10095    0.17749    0.68508    1.000
    C677     C        0.11239    0.15004    0.69486    1.000
    C678     C        0.13205    0.14970    0.67179    1.000
    C679     C        0.13296    0.16843    0.65143    1.000
    C680     C        0.10943    0.18519    0.66146    1.000
    C681     C        0.10104    0.21056    0.64396    1.000
    H506     H        0.10950    0.21790    0.62930    1.000
    C682     C        0.12268    0.15866    0.71811    1.000
    H507     H        0.10920    0.15830    0.73150    1.000
    H508     H        0.12910    0.17640    0.71600    1.000
    H509     H        0.13710    0.14730    0.72330    1.000
    C683     C        0.09136    0.12785    0.68938    1.000
    H510     H        0.08830    0.12650    0.67070    1.000
    H511     H        0.07510    0.13220    0.69820    1.000
    H512     H        0.09780    0.11120    0.69590    1.000
    C684     C        0.07387    0.22008    0.65879    1.000
    H513     H        0.06430    0.23420    0.65180    1.000
    O115     O        0.02996    0.73572    0.18384    1.000
    O116     O        0.02840    0.70240    0.20990    1.000
    C685     C        0.03626    0.71275    0.19247    1.000
    C686     C        0.06396    0.70671    0.18343    1.000
    C687     C        0.07155    0.68467    0.18921    1.000
    H514     H        0.05980    0.67220    0.19610    1.000
    C688     C        0.10095    0.67749    0.18508    1.000
    C689     C        0.11239    0.65004    0.19486    1.000
    C690     C        0.13205    0.64970    0.17179    1.000
    C691     C        0.13296    0.66843    0.15143    1.000
    C692     C        0.10943    0.68519    0.16146    1.000
    C693     C        0.10104    0.71056    0.14396    1.000
    H515     H        0.10950    0.71790    0.12930    1.000
    C694     C        0.12268    0.65866    0.21811    1.000
    H516     H        0.10920    0.65830    0.23150    1.000
    H517     H        0.12910    0.67640    0.21600    1.000
    H518     H        0.13710    0.64730    0.22330    1.000
    C695     C        0.09136    0.62785    0.18938    1.000
    H519     H        0.08830    0.62650    0.17070    1.000
    H520     H        0.07510    0.63220    0.19820    1.000
    H521     H        0.09780    0.61120    0.19590    1.000
    C696     C        0.07387    0.72008    0.15879    1.000
    H522     H        0.06430    0.73420    0.15180    1.000
    O117     O        0.52996    0.23572    0.18384    1.000
    O118     O        0.52840    0.20240    0.20990    1.000
    C697     C        0.53626    0.21275    0.19247    1.000
    C698     C        0.56396    0.20671    0.18343    1.000
    C699     C        0.57155    0.18467    0.18921    1.000
    H523     H        0.55980    0.17220    0.19610    1.000
    C700     C        0.60095    0.17749    0.18508    1.000
    C701     C        0.61239    0.15004    0.19486    1.000
    C702     C        0.63205    0.14970    0.17179    1.000
    C703     C        0.63296    0.16843    0.15143    1.000
    C704     C        0.60943    0.18519    0.16146    1.000
    C705     C        0.60104    0.21056    0.14396    1.000
    H524     H        0.60950    0.21790    0.12930    1.000
    C706     C        0.62268    0.15866    0.21811    1.000
    H525     H        0.60920    0.15830    0.23150    1.000
    H526     H        0.62910    0.17640    0.21600    1.000
    H527     H        0.63710    0.14730    0.22330    1.000
    C707     C        0.59136    0.12785    0.18938    1.000
    H528     H        0.58830    0.12650    0.17070    1.000
    H529     H        0.57510    0.13220    0.19820    1.000
    H530     H        0.59780    0.11120    0.19590    1.000
    C708     C        0.57387    0.22008    0.15879    1.000
    H531     H        0.56430    0.23420    0.15180    1.000
    O119     O        0.52996    0.73572    0.68384    1.000
    O120     O        0.52840    0.70240    0.70990    1.000
    C709     C        0.53626    0.71275    0.69247    1.000
    C710     C        0.56396    0.70671    0.68343    1.000
    C711     C        0.57155    0.68467    0.68921    1.000
    H532     H        0.55980    0.67220    0.69610    1.000
    C712     C        0.60095    0.67749    0.68508    1.000
    C713     C        0.61239    0.65004    0.69486    1.000
    C714     C        0.63205    0.64970    0.67179    1.000
    C715     C        0.63296    0.66843    0.65143    1.000
    C716     C        0.60943    0.68519    0.66146    1.000
    C717     C        0.60104    0.71056    0.64396    1.000
    H533     H        0.60950    0.71790    0.62930    1.000
    C718     C        0.62268    0.65866    0.71811    1.000
    H534     H        0.60920    0.65830    0.73150    1.000
    H535     H        0.62910    0.67640    0.71600    1.000
    H536     H        0.63710    0.64730    0.72330    1.000
    C719     C        0.59136    0.62785    0.68938    1.000
    H537     H        0.58830    0.62650    0.67070    1.000
    H538     H        0.57510    0.63220    0.69820    1.000
    H539     H        0.59780    0.61120    0.69590    1.000
    C720     C        0.57387    0.72008    0.65879    1.000
    H540     H        0.56430    0.73420    0.65180    1.000
    O121     O        0.97004    0.76428    0.68384    1.000
    O122     O        0.97160    0.79760    0.70990    1.000
    C721     C        0.96374    0.78725    0.69247    1.000
    C722     C        0.93604    0.79329    0.68343    1.000
    C723     C        0.92845    0.81533    0.68921    1.000
    H541     H        0.94020    0.82780    0.69610    1.000
    C724     C        0.89905    0.82251    0.68508    1.000
    C725     C        0.88761    0.84996    0.69486    1.000
    C726     C        0.86795    0.85030    0.67179    1.000
    C727     C        0.86704    0.83157    0.65143    1.000
    C728     C        0.89057    0.81481    0.66146    1.000
    C729     C        0.89896    0.78944    0.64396    1.000
    H542     H        0.89050    0.78210    0.62930    1.000
    C730     C        0.87732    0.84134    0.71811    1.000
    H543     H        0.89080    0.84170    0.73150    1.000
    H544     H        0.87090    0.82360    0.71600    1.000
    H545     H        0.86290    0.85270    0.72330    1.000
    C731     C        0.90864    0.87215    0.68938    1.000
    H546     H        0.91170    0.87350    0.67070    1.000
    H547     H        0.92490    0.86780    0.69820    1.000
    H548     H        0.90220    0.88880    0.69590    1.000
    C732     C        0.92613    0.77992    0.65879    1.000
    H549     H        0.93570    0.76580    0.65180    1.000
    O123     O        0.97004    0.26428    0.18384    1.000
    O124     O        0.97160    0.29760    0.20990    1.000
    C733     C        0.96374    0.28725    0.19247    1.000
    C734     C        0.93604    0.29329    0.18343    1.000
    C735     C        0.92845    0.31533    0.18921    1.000
    H550     H        0.94020    0.32780    0.19610    1.000
    C736     C        0.89905    0.32251    0.18508    1.000
    C737     C        0.88761    0.34996    0.19486    1.000
    C738     C        0.86795    0.35030    0.17179    1.000
    C739     C        0.86704    0.33157    0.15143    1.000
    C740     C        0.89057    0.31481    0.16146    1.000
    C741     C        0.89896    0.28944    0.14396    1.000
    H551     H        0.89050    0.28210    0.12930    1.000
    C742     C        0.87732    0.34134    0.21811    1.000
    H552     H        0.89080    0.34170    0.23150    1.000
    H553     H        0.87090    0.32360    0.21600    1.000
    H554     H        0.86290    0.35270    0.22330    1.000
    C743     C        0.90864    0.37215    0.18938    1.000
    H555     H        0.91170    0.37350    0.17070    1.000
    H556     H        0.92490    0.36780    0.19820    1.000
    H557     H        0.90220    0.38880    0.19590    1.000
    C744     C        0.92613    0.27992    0.15879    1.000
    H558     H        0.93570    0.26580    0.15180    1.000
    O125     O        0.47004    0.76428    0.18384    1.000
    O126     O        0.47160    0.79760    0.20990    1.000
    C745     C        0.46374    0.78725    0.19247    1.000
    C746     C        0.43604    0.79329    0.18343    1.000
    C747     C        0.42845    0.81533    0.18921    1.000
    H559     H        0.44020    0.82780    0.19610    1.000
    C748     C        0.39905    0.82251    0.18508    1.000
    C749     C        0.38761    0.84996    0.19486    1.000
    C750     C        0.36795    0.85030    0.17179    1.000
    C751     C        0.36704    0.83157    0.15143    1.000
    C752     C        0.39057    0.81481    0.16146    1.000
    C753     C        0.39896    0.78944    0.14396    1.000
    H560     H        0.39050    0.78210    0.12930    1.000
    C754     C        0.37732    0.84134    0.21811    1.000
    H561     H        0.39080    0.84170    0.23150    1.000
    H562     H        0.37090    0.82360    0.21600    1.000
    H563     H        0.36290    0.85270    0.22330    1.000
    C755     C        0.40864    0.87215    0.18938    1.000
    H564     H        0.41170    0.87350    0.17070    1.000
    H565     H        0.42490    0.86780    0.19820    1.000
    H566     H        0.40220    0.88880    0.19590    1.000
    C756     C        0.42613    0.77992    0.15879    1.000
    H567     H        0.43570    0.76580    0.15180    1.000
    O127     O        0.47004    0.26428    0.68384    1.000
    O128     O        0.47160    0.29760    0.70990    1.000
    C757     C        0.46374    0.28725    0.69247    1.000
    C758     C        0.43604    0.29329    0.68343    1.000
    C759     C        0.42845    0.31533    0.68921    1.000
    H568     H        0.44020    0.32780    0.69610    1.000
    C760     C        0.39905    0.32251    0.68508    1.000
    C761     C        0.38761    0.34996    0.69486    1.000
    C762     C        0.36795    0.35030    0.67179    1.000
    C763     C        0.36704    0.33157    0.65143    1.000
    C764     C        0.39057    0.31481    0.66146    1.000
    C765     C        0.39896    0.28944    0.64396    1.000
    H569     H        0.39050    0.28210    0.62930    1.000
    C766     C        0.37732    0.34134    0.71811    1.000
    H570     H        0.39080    0.34170    0.73150    1.000
    H571     H        0.37090    0.32360    0.71600    1.000
    H572     H        0.36290    0.35270    0.72330    1.000
    C767     C        0.40864    0.37215    0.68938    1.000
    H573     H        0.41170    0.37350    0.67070    1.000
    H574     H        0.42490    0.36780    0.69820    1.000
    H575     H        0.40220    0.38880    0.69590    1.000
    C768     C        0.42613    0.27992    0.65879    1.000
    H576     H        0.43570    0.26580    0.65180    1.000
    O129     O        0.76428    0.68384    0.97004    1.000
    O130     O        0.79760    0.70990    0.97160    1.000
    C769     C        0.78725    0.69247    0.96374    1.000
    C770     C        0.79329    0.68343    0.93604    1.000
    C771     C        0.81533    0.68921    0.92845    1.000
    H577     H        0.82780    0.69610    0.94020    1.000
    C772     C        0.82251    0.68508    0.89905    1.000
    C773     C        0.84996    0.69486    0.88761    1.000
    C774     C        0.85030    0.67179    0.86795    1.000
    C775     C        0.83157    0.65143    0.86704    1.000
    C776     C        0.81481    0.66146    0.89057    1.000
    C777     C        0.78944    0.64396    0.89896    1.000
    H578     H        0.78210    0.62930    0.89050    1.000
    C778     C        0.84134    0.71811    0.87732    1.000
    H579     H        0.84170    0.73150    0.89080    1.000
    H580     H        0.82360    0.71600    0.87090    1.000
    H581     H        0.85270    0.72330    0.86290    1.000
    C779     C        0.87215    0.68938    0.90864    1.000
    H582     H        0.87350    0.67070    0.91170    1.000
    H583     H        0.86780    0.69820    0.92490    1.000
    H584     H        0.88880    0.69590    0.90220    1.000
    C780     C        0.77992    0.65879    0.92613    1.000
    H585     H        0.76580    0.65180    0.93570    1.000
    O131     O        0.76428    0.18384    0.47004    1.000
    O132     O        0.79760    0.20990    0.47160    1.000
    C781     C        0.78725    0.19247    0.46374    1.000
    C782     C        0.79329    0.18343    0.43604    1.000
    C783     C        0.81533    0.18921    0.42845    1.000
    H586     H        0.82780    0.19610    0.44020    1.000
    C784     C        0.82251    0.18508    0.39905    1.000
    C785     C        0.84996    0.19486    0.38761    1.000
    C786     C        0.85030    0.17179    0.36795    1.000
    C787     C        0.83157    0.15143    0.36704    1.000
    C788     C        0.81481    0.16146    0.39057    1.000
    C789     C        0.78944    0.14396    0.39896    1.000
    H587     H        0.78210    0.12930    0.39050    1.000
    C790     C        0.84134    0.21811    0.37732    1.000
    H588     H        0.84170    0.23150    0.39080    1.000
    H589     H        0.82360    0.21600    0.37090    1.000
    H590     H        0.85270    0.22330    0.36290    1.000
    C791     C        0.87215    0.18938    0.40864    1.000
    H591     H        0.87350    0.17070    0.41170    1.000
    H592     H        0.86780    0.19820    0.42490    1.000
    H593     H        0.88880    0.19590    0.40220    1.000
    C792     C        0.77992    0.15879    0.42613    1.000
    H594     H        0.76580    0.15180    0.43570    1.000
    O133     O        0.26428    0.68384    0.47004    1.000
    O134     O        0.29760    0.70990    0.47160    1.000
    C793     C        0.28725    0.69247    0.46374    1.000
    C794     C        0.29329    0.68343    0.43604    1.000
    C795     C        0.31533    0.68921    0.42845    1.000
    H595     H        0.32780    0.69610    0.44020    1.000
    C796     C        0.32251    0.68508    0.39905    1.000
    C797     C        0.34996    0.69486    0.38761    1.000
    C798     C        0.35030    0.67179    0.36795    1.000
    C799     C        0.33157    0.65143    0.36704    1.000
    C800     C        0.31481    0.66146    0.39057    1.000
    C801     C        0.28944    0.64396    0.39896    1.000
    H596     H        0.28210    0.62930    0.39050    1.000
    C802     C        0.34134    0.71811    0.37732    1.000
    H597     H        0.34170    0.73150    0.39080    1.000
    H598     H        0.32360    0.71600    0.37090    1.000
    H599     H        0.35270    0.72330    0.36290    1.000
    C803     C        0.37215    0.68938    0.40864    1.000
    H600     H        0.37350    0.67070    0.41170    1.000
    H601     H        0.36780    0.69820    0.42490    1.000
    H602     H        0.38880    0.69590    0.40220    1.000
    C804     C        0.27992    0.65879    0.42613    1.000
    H603     H        0.26580    0.65180    0.43570    1.000
    O135     O        0.26428    0.18384    0.97004    1.000
    O136     O        0.29760    0.20990    0.97160    1.000
    C805     C        0.28725    0.19247    0.96374    1.000
    C806     C        0.29329    0.18343    0.93604    1.000
    C807     C        0.31533    0.18921    0.92845    1.000
    H604     H        0.32780    0.19610    0.94020    1.000
    C808     C        0.32251    0.18508    0.89905    1.000
    C809     C        0.34996    0.19486    0.88761    1.000
    C810     C        0.35030    0.17179    0.86795    1.000
    C811     C        0.33157    0.15143    0.86704    1.000
    C812     C        0.31481    0.16146    0.89057    1.000
    C813     C        0.28944    0.14396    0.89896    1.000
    H605     H        0.28210    0.12930    0.89050    1.000
    C814     C        0.34134    0.21811    0.87732    1.000
    H606     H        0.34170    0.23150    0.89080    1.000
    H607     H        0.32360    0.21600    0.87090    1.000
    H608     H        0.35270    0.22330    0.86290    1.000
    C815     C        0.37215    0.18938    0.90864    1.000
    H609     H        0.37350    0.17070    0.91170    1.000
    H610     H        0.36780    0.19820    0.92490    1.000
    H611     H        0.38880    0.19590    0.90220    1.000
    C816     C        0.27992    0.15879    0.92613    1.000
    H612     H        0.26580    0.15180    0.93570    1.000
    O137     O        0.23572    0.68384    0.02996    1.000
    O138     O        0.20240    0.70990    0.02840    1.000
    C817     C        0.21275    0.69247    0.03626    1.000
    C818     C        0.20671    0.68343    0.06396    1.000
    C819     C        0.18467    0.68921    0.07155    1.000
    H613     H        0.17220    0.69610    0.05980    1.000
    C820     C        0.17749    0.68508    0.10095    1.000
    C821     C        0.15004    0.69486    0.11239    1.000
    C822     C        0.14970    0.67179    0.13205    1.000
    C823     C        0.16843    0.65143    0.13296    1.000
    C824     C        0.18519    0.66146    0.10943    1.000
    C825     C        0.21056    0.64396    0.10104    1.000
    H614     H        0.21790    0.62930    0.10950    1.000
    C826     C        0.15866    0.71811    0.12268    1.000
    H615     H        0.15830    0.73150    0.10920    1.000
    H616     H        0.17640    0.71600    0.12910    1.000
    H617     H        0.14730    0.72330    0.13710    1.000
    C827     C        0.12785    0.68938    0.09136    1.000
    H618     H        0.12650    0.67070    0.08830    1.000
    H619     H        0.13220    0.69820    0.07510    1.000
    H620     H        0.11120    0.69590    0.09780    1.000
    C828     C        0.22008    0.65879    0.07387    1.000
    H621     H        0.23420    0.65180    0.06430    1.000
    O139     O        0.23572    0.18384    0.52996    1.000
    O140     O        0.20240    0.20990    0.52840    1.000
    C829     C        0.21275    0.19247    0.53626    1.000
    C830     C        0.20671    0.18343    0.56396    1.000
    C831     C        0.18467    0.18921    0.57155    1.000
    H622     H        0.17220    0.19610    0.55980    1.000
    C832     C        0.17749    0.18508    0.60095    1.000
    C833     C        0.15004    0.19486    0.61239    1.000
    C834     C        0.14970    0.17179    0.63205    1.000
    C835     C        0.16843    0.15143    0.63296    1.000
    C836     C        0.18519    0.16146    0.60943    1.000
    C837     C        0.21056    0.14396    0.60104    1.000
    H623     H        0.21790    0.12930    0.60950    1.000
    C838     C        0.15866    0.21811    0.62268    1.000
    H624     H        0.15830    0.23150    0.60920    1.000
    H625     H        0.17640    0.21600    0.62910    1.000
    H626     H        0.14730    0.22330    0.63710    1.000
    C839     C        0.12785    0.18938    0.59136    1.000
    H627     H        0.12650    0.17070    0.58830    1.000
    H628     H        0.13220    0.19820    0.57510    1.000
    H629     H        0.11120    0.19590    0.59780    1.000
    C840     C        0.22008    0.15879    0.57387    1.000
    H630     H        0.23420    0.15180    0.56430    1.000
    O141     O        0.73572    0.68384    0.52996    1.000
    O142     O        0.70240    0.70990    0.52840    1.000
    C841     C        0.71275    0.69247    0.53626    1.000
    C842     C        0.70671    0.68343    0.56396    1.000
    C843     C        0.68467    0.68921    0.57155    1.000
    H631     H        0.67220    0.69610    0.55980    1.000
    C844     C        0.67749    0.68508    0.60095    1.000
    C845     C        0.65004    0.69486    0.61239    1.000
    C846     C        0.64970    0.67179    0.63205    1.000
    C847     C        0.66843    0.65143    0.63296    1.000
    C848     C        0.68519    0.66146    0.60943    1.000
    C849     C        0.71056    0.64396    0.60104    1.000
    H632     H        0.71790    0.62930    0.60950    1.000
    C850     C        0.65866    0.71811    0.62268    1.000
    H633     H        0.65830    0.73150    0.60920    1.000
    H634     H        0.67640    0.71600    0.62910    1.000
    H635     H        0.64730    0.72330    0.63710    1.000
    C851     C        0.62785    0.68938    0.59136    1.000
    H636     H        0.62650    0.67070    0.58830    1.000
    H637     H        0.63220    0.69820    0.57510    1.000
    H638     H        0.61120    0.69590    0.59780    1.000
    C852     C        0.72008    0.65879    0.57387    1.000
    H639     H        0.73420    0.65180    0.56430    1.000
    O143     O        0.73572    0.18384    0.02996    1.000
    O144     O        0.70240    0.20990    0.02840    1.000
    C853     C        0.71275    0.19247    0.03626    1.000
    C854     C        0.70671    0.18343    0.06396    1.000
    C855     C        0.68467    0.18921    0.07155    1.000
    H640     H        0.67220    0.19610    0.05980    1.000
    C856     C        0.67749    0.18508    0.10095    1.000
    C857     C        0.65004    0.19486    0.11239    1.000
    C858     C        0.64970    0.17179    0.13205    1.000
    C859     C        0.66843    0.15143    0.13296    1.000
    C860     C        0.68519    0.16146    0.10943    1.000
    C861     C        0.71056    0.14396    0.10104    1.000
    H641     H        0.71790    0.12930    0.10950    1.000
    C862     C        0.65866    0.21811    0.12268    1.000
    H642     H        0.65830    0.23150    0.10920    1.000
    H643     H        0.67640    0.21600    0.12910    1.000
    H644     H        0.64730    0.22330    0.13710    1.000
    C863     C        0.62785    0.18938    0.09136    1.000
    H645     H        0.62650    0.17070    0.08830    1.000
    H646     H        0.63220    0.19820    0.07510    1.000
    H647     H        0.61120    0.19590    0.09780    1.000
    C864     C        0.72008    0.15879    0.07387    1.000
    H648     H        0.73420    0.15180    0.06430    1.000
    O145     O        0.23572    0.31616    0.97004    1.000
    O146     O        0.20240    0.29010    0.97160    1.000
    C865     C        0.21275    0.30753    0.96374    1.000
    C866     C        0.20671    0.31657    0.93604    1.000
    C867     C        0.18467    0.31079    0.92845    1.000
    H649     H        0.17220    0.30390    0.94020    1.000
    C868     C        0.17749    0.31492    0.89905    1.000
    C869     C        0.15004    0.30514    0.88761    1.000
    C870     C        0.14970    0.32821    0.86795    1.000
    C871     C        0.16843    0.34857    0.86704    1.000
    C872     C        0.18519    0.33854    0.89057    1.000
    C873     C        0.21056    0.35604    0.89896    1.000
    H650     H        0.21790    0.37070    0.89050    1.000
    C874     C        0.15866    0.28189    0.87732    1.000
    H651     H        0.15830    0.26850    0.89080    1.000
    H652     H        0.17640    0.28400    0.87090    1.000
    H653     H        0.14730    0.27670    0.86290    1.000
    C875     C        0.12785    0.31062    0.90864    1.000
    H654     H        0.12650    0.32930    0.91170    1.000
    H655     H        0.13220    0.30180    0.92490    1.000
    H656     H        0.11120    0.30410    0.90220    1.000
    C876     C        0.22008    0.34121    0.92613    1.000
    H657     H        0.23420    0.34820    0.93570    1.000
    O147     O        0.23572    0.81616    0.47004    1.000
    O148     O        0.20240    0.79010    0.47160    1.000
    C877     C        0.21275    0.80753    0.46374    1.000
    C878     C        0.20671    0.81657    0.43604    1.000
    C879     C        0.18467    0.81079    0.42845    1.000
    H658     H        0.17220    0.80390    0.44020    1.000
    C880     C        0.17749    0.81492    0.39905    1.000
    C881     C        0.15004    0.80514    0.38761    1.000
    C882     C        0.14970    0.82821    0.36795    1.000
    C883     C        0.16843    0.84857    0.36704    1.000
    C884     C        0.18519    0.83854    0.39057    1.000
    C885     C        0.21056    0.85604    0.39896    1.000
    H659     H        0.21790    0.87070    0.39050    1.000
    C886     C        0.15866    0.78189    0.37732    1.000
    H660     H        0.15830    0.76850    0.39080    1.000
    H661     H        0.17640    0.78400    0.37090    1.000
    H662     H        0.14730    0.77670    0.36290    1.000
    C887     C        0.12785    0.81062    0.40864    1.000
    H663     H        0.12650    0.82930    0.41170    1.000
    H664     H        0.13220    0.80180    0.42490    1.000
    H665     H        0.11120    0.80410    0.40220    1.000
    C888     C        0.22008    0.84121    0.42613    1.000
    H666     H        0.23420    0.84820    0.43570    1.000
    O149     O        0.73572    0.31616    0.47004    1.000
    O150     O        0.70240    0.29010    0.47160    1.000
    C889     C        0.71275    0.30753    0.46374    1.000
    C890     C        0.70671    0.31657    0.43604    1.000
    C891     C        0.68467    0.31079    0.42845    1.000
    H667     H        0.67220    0.30390    0.44020    1.000
    C892     C        0.67749    0.31492    0.39905    1.000
    C893     C        0.65004    0.30514    0.38761    1.000
    C894     C        0.64970    0.32821    0.36795    1.000
    C895     C        0.66843    0.34857    0.36704    1.000
    C896     C        0.68519    0.33854    0.39057    1.000
    C897     C        0.71056    0.35604    0.39896    1.000
    H668     H        0.71790    0.37070    0.39050    1.000
    C898     C        0.65866    0.28189    0.37732    1.000
    H669     H        0.65830    0.26850    0.39080    1.000
    H670     H        0.67640    0.28400    0.37090    1.000
    H671     H        0.64730    0.27670    0.36290    1.000
    C899     C        0.62785    0.31062    0.40864    1.000
    H672     H        0.62650    0.32930    0.41170    1.000
    H673     H        0.63220    0.30180    0.42490    1.000
    H674     H        0.61120    0.30410    0.40220    1.000
    C900     C        0.72008    0.34121    0.42613    1.000
    H675     H        0.73420    0.34820    0.43570    1.000
    O151     O        0.73572    0.81616    0.97004    1.000
    O152     O        0.70240    0.79010    0.97160    1.000
    C901     C        0.71275    0.80753    0.96374    1.000
    C902     C        0.70671    0.81657    0.93604    1.000
    C903     C        0.68467    0.81079    0.92845    1.000
    H676     H        0.67220    0.80390    0.94020    1.000
    C904     C        0.67749    0.81492    0.89905    1.000
    C905     C        0.65004    0.80514    0.88761    1.000
    C906     C        0.64970    0.82821    0.86795    1.000
    C907     C        0.66843    0.84857    0.86704    1.000
    C908     C        0.68519    0.83854    0.89057    1.000
    C909     C        0.71056    0.85604    0.89896    1.000
    H677     H        0.71790    0.87070    0.89050    1.000
    C910     C        0.65866    0.78189    0.87732    1.000
    H678     H        0.65830    0.76850    0.89080    1.000
    H679     H        0.67640    0.78400    0.87090    1.000
    H680     H        0.64730    0.77670    0.86290    1.000
    C911     C        0.62785    0.81062    0.90864    1.000
    H681     H        0.62650    0.82930    0.91170    1.000
    H682     H        0.63220    0.80180    0.92490    1.000
    H683     H        0.61120    0.80410    0.90220    1.000
    C912     C        0.72008    0.84121    0.92613    1.000
    H684     H        0.73420    0.84820    0.93570    1.000
    O153     O        0.76428    0.31616    0.02996    1.000
    O154     O        0.79760    0.29010    0.02840    1.000
    C913     C        0.78725    0.30753    0.03626    1.000
    C914     C        0.79329    0.31657    0.06396    1.000
    C915     C        0.81533    0.31079    0.07155    1.000
    H685     H        0.82780    0.30390    0.05980    1.000
    C916     C        0.82251    0.31492    0.10095    1.000
    C917     C        0.84996    0.30514    0.11239    1.000
    C918     C        0.85030    0.32821    0.13205    1.000
    C919     C        0.83157    0.34857    0.13296    1.000
    C920     C        0.81481    0.33854    0.10943    1.000
    C921     C        0.78944    0.35604    0.10104    1.000
    H686     H        0.78210    0.37070    0.10950    1.000
    C922     C        0.84134    0.28189    0.12268    1.000
    H687     H        0.84170    0.26850    0.10920    1.000
    H688     H        0.82360    0.28400    0.12910    1.000
    H689     H        0.85270    0.27670    0.13710    1.000
    C923     C        0.87215    0.31062    0.09136    1.000
    H690     H        0.87350    0.32930    0.08830    1.000
    H691     H        0.86780    0.30180    0.07510    1.000
    H692     H        0.88880    0.30410    0.09780    1.000
    C924     C        0.77992    0.34121    0.07387    1.000
    H693     H        0.76580    0.34820    0.06430    1.000
    O155     O        0.76428    0.81616    0.52996    1.000
    O156     O        0.79760    0.79010    0.52840    1.000
    C925     C        0.78725    0.80753    0.53626    1.000
    C926     C        0.79329    0.81657    0.56396    1.000
    C927     C        0.81533    0.81079    0.57155    1.000
    H694     H        0.82780    0.80390    0.55980    1.000
    C928     C        0.82251    0.81492    0.60095    1.000
    C929     C        0.84996    0.80514    0.61239    1.000
    C930     C        0.85030    0.82821    0.63205    1.000
    C931     C        0.83157    0.84857    0.63296    1.000
    C932     C        0.81481    0.83854    0.60943    1.000
    C933     C        0.78944    0.85604    0.60104    1.000
    H695     H        0.78210    0.87070    0.60950    1.000
    C934     C        0.84134    0.78189    0.62268    1.000
    H696     H        0.84170    0.76850    0.60920    1.000
    H697     H        0.82360    0.78400    0.62910    1.000
    H698     H        0.85270    0.77670    0.63710    1.000
    C935     C        0.87215    0.81062    0.59136    1.000
    H699     H        0.87350    0.82930    0.58830    1.000
    H700     H        0.86780    0.80180    0.57510    1.000
    H701     H        0.88880    0.80410    0.59780    1.000
    C936     C        0.77992    0.84121    0.57387    1.000
    H702     H        0.76580    0.84820    0.56430    1.000
    O157     O        0.26428    0.31616    0.52996    1.000
    O158     O        0.29760    0.29010    0.52840    1.000
    C937     C        0.28725    0.30753    0.53626    1.000
    C938     C        0.29329    0.31657    0.56396    1.000
    C939     C        0.31533    0.31079    0.57155    1.000
    H703     H        0.32780    0.30390    0.55980    1.000
    C940     C        0.32251    0.31492    0.60095    1.000
    C941     C        0.34996    0.30514    0.61239    1.000
    C942     C        0.35030    0.32821    0.63205    1.000
    C943     C        0.33157    0.34857    0.63296    1.000
    C944     C        0.31481    0.33854    0.60943    1.000
    C945     C        0.28944    0.35604    0.60104    1.000
    H704     H        0.28210    0.37070    0.60950    1.000
    C946     C        0.34134    0.28189    0.62268    1.000
    H705     H        0.34170    0.26850    0.60920    1.000
    H706     H        0.32360    0.28400    0.62910    1.000
    H707     H        0.35270    0.27670    0.63710    1.000
    C947     C        0.37215    0.31062    0.59136    1.000
    H708     H        0.37350    0.32930    0.58830    1.000
    H709     H        0.36780    0.30180    0.57510    1.000
    H710     H        0.38880    0.30410    0.59780    1.000
    C948     C        0.27992    0.34121    0.57387    1.000
    H711     H        0.26580    0.34820    0.56430    1.000
    O159     O        0.26428    0.81616    0.02996    1.000
    O160     O        0.29760    0.79010    0.02840    1.000
    C949     C        0.28725    0.80753    0.03626    1.000
    C950     C        0.29329    0.81657    0.06396    1.000
    C951     C        0.31533    0.81079    0.07155    1.000
    H712     H        0.32780    0.80390    0.05980    1.000
    C952     C        0.32251    0.81492    0.10095    1.000
    C953     C        0.34996    0.80514    0.11239    1.000
    C954     C        0.35030    0.82821    0.13205    1.000
    C955     C        0.33157    0.84857    0.13296    1.000
    C956     C        0.31481    0.83854    0.10943    1.000
    C957     C        0.28944    0.85604    0.10104    1.000
    H713     H        0.28210    0.87070    0.10950    1.000
    C958     C        0.34134    0.78189    0.12268    1.000
    H714     H        0.34170    0.76850    0.10920    1.000
    H715     H        0.32360    0.78400    0.12910    1.000
    H716     H        0.35270    0.77670    0.13710    1.000
    C959     C        0.37215    0.81062    0.09136    1.000
    H717     H        0.37350    0.82930    0.08830    1.000
    H718     H        0.36780    0.80180    0.07510    1.000
    H719     H        0.38880    0.80410    0.09780    1.000
    C960     C        0.27992    0.84121    0.07387    1.000
    H720     H        0.26580    0.84820    0.06430    1.000
    O161     O        0.68384    0.02996    0.23572    1.000
    O162     O        0.70990    0.02840    0.20240    1.000
    C961     C        0.69247    0.03626    0.21275    1.000
    C962     C        0.68343    0.06396    0.20671    1.000
    C963     C        0.68921    0.07155    0.18467    1.000
    H721     H        0.69610    0.05980    0.17220    1.000
    C964     C        0.68508    0.10095    0.17749    1.000
    C965     C        0.69486    0.11239    0.15004    1.000
    C966     C        0.67179    0.13205    0.14970    1.000
    C967     C        0.65143    0.13296    0.16843    1.000
    C968     C        0.66146    0.10943    0.18519    1.000
    C969     C        0.64396    0.10104    0.21056    1.000
    H722     H        0.62930    0.10950    0.21790    1.000
    C970     C        0.71811    0.12268    0.15866    1.000
    H723     H        0.73150    0.10920    0.15830    1.000
    H724     H        0.71600    0.12910    0.17640    1.000
    H725     H        0.72330    0.13710    0.14730    1.000
    C971     C        0.68938    0.09136    0.12785    1.000
    H726     H        0.67070    0.08830    0.12650    1.000
    H727     H        0.69820    0.07510    0.13220    1.000
    H728     H        0.69590    0.09780    0.11120    1.000
    C972     C        0.65879    0.07387    0.22008    1.000
    H729     H        0.65180    0.06430    0.23420    1.000
    O163     O        0.68384    0.52996    0.73572    1.000
    O164     O        0.70990    0.52840    0.70240    1.000
    C973     C        0.69247    0.53626    0.71275    1.000
    C974     C        0.68343    0.56396    0.70671    1.000
    C975     C        0.68921    0.57155    0.68467    1.000
    H730     H        0.69610    0.55980    0.67220    1.000
    C976     C        0.68508    0.60095    0.67749    1.000
    C977     C        0.69486    0.61239    0.65004    1.000
    C978     C        0.67179    0.63205    0.64970    1.000
    C979     C        0.65143    0.63296    0.66843    1.000
    C980     C        0.66146    0.60943    0.68519    1.000
    C981     C        0.64396    0.60104    0.71056    1.000
    H731     H        0.62930    0.60950    0.71790    1.000
    C982     C        0.71811    0.62268    0.65866    1.000
    H732     H        0.73150    0.60920    0.65830    1.000
    H733     H        0.71600    0.62910    0.67640    1.000
    H734     H        0.72330    0.63710    0.64730    1.000
    C983     C        0.68938    0.59136    0.62785    1.000
    H735     H        0.67070    0.58830    0.62650    1.000
    H736     H        0.69820    0.57510    0.63220    1.000
    H737     H        0.69590    0.59780    0.61120    1.000
    C984     C        0.65879    0.57387    0.72008    1.000
    H738     H        0.65180    0.56430    0.73420    1.000
    O165     O        0.18384    0.02996    0.73572    1.000
    O166     O        0.20990    0.02840    0.70240    1.000
    C985     C        0.19247    0.03626    0.71275    1.000
    C986     C        0.18343    0.06396    0.70671    1.000
    C987     C        0.18921    0.07155    0.68467    1.000
    H739     H        0.19610    0.05980    0.67220    1.000
    C988     C        0.18508    0.10095    0.67749    1.000
    C989     C        0.19486    0.11239    0.65004    1.000
    C990     C        0.17179    0.13205    0.64970    1.000
    C991     C        0.15143    0.13296    0.66843    1.000
    C992     C        0.16146    0.10943    0.68519    1.000
    C993     C        0.14396    0.10104    0.71056    1.000
    H740     H        0.12930    0.10950    0.71790    1.000
    C994     C        0.21811    0.12268    0.65866    1.000
    H741     H        0.23150    0.10920    0.65830    1.000
    H742     H        0.21600    0.12910    0.67640    1.000
    H743     H        0.22330    0.13710    0.64730    1.000
    C995     C        0.18938    0.09136    0.62785    1.000
    H744     H        0.17070    0.08830    0.62650    1.000
    H745     H        0.19820    0.07510    0.63220    1.000
    H746     H        0.19590    0.09780    0.61120    1.000
    C996     C        0.15879    0.07387    0.72008    1.000
    H747     H        0.15180    0.06430    0.73420    1.000
    O167     O        0.18384    0.52996    0.23572    1.000
    O168     O        0.20990    0.52840    0.20240    1.000
    C997     C        0.19247    0.53626    0.21275    1.000
    C998     C        0.18343    0.56396    0.20671    1.000
    C999     C        0.18921    0.57155    0.18467    1.000
    H748     H        0.19610    0.55980    0.17220    1.000
    C1000    C        0.18508    0.60095    0.17749    1.000
    C1001    C        0.19486    0.61239    0.15004    1.000
    C1002    C        0.17179    0.63205    0.14970    1.000
    C1003    C        0.15143    0.63296    0.16843    1.000
    C1004    C        0.16146    0.60943    0.18519    1.000
    C1005    C        0.14396    0.60104    0.21056    1.000
    H749     H        0.12930    0.60950    0.21790    1.000
    C1006    C        0.21811    0.62268    0.15866    1.000
    H750     H        0.23150    0.60920    0.15830    1.000
    H751     H        0.21600    0.62910    0.17640    1.000
    H752     H        0.22330    0.63710    0.14730    1.000
    C1007    C        0.18938    0.59136    0.12785    1.000
    H753     H        0.17070    0.58830    0.12650    1.000
    H754     H        0.19820    0.57510    0.13220    1.000
    H755     H        0.19590    0.59780    0.11120    1.000
    C1008    C        0.15879    0.57387    0.22008    1.000
    H756     H        0.15180    0.56430    0.23420    1.000
    O169     O        0.68384    0.97004    0.76428    1.000
    O170     O        0.70990    0.97160    0.79760    1.000
    C1009    C        0.69247    0.96374    0.78725    1.000
    C1010    C        0.68343    0.93604    0.79329    1.000
    C1011    C        0.68921    0.92845    0.81533    1.000
    H757     H        0.69610    0.94020    0.82780    1.000
    C1012    C        0.68508    0.89905    0.82251    1.000
    C1013    C        0.69486    0.88761    0.84996    1.000
    C1014    C        0.67179    0.86795    0.85030    1.000
    C1015    C        0.65143    0.86704    0.83157    1.000
    C1016    C        0.66146    0.89057    0.81481    1.000
    C1017    C        0.64396    0.89896    0.78944    1.000
    H758     H        0.62930    0.89050    0.78210    1.000
    C1018    C        0.71811    0.87732    0.84134    1.000
    H759     H        0.73150    0.89080    0.84170    1.000
    H760     H        0.71600    0.87090    0.82360    1.000
    H761     H        0.72330    0.86290    0.85270    1.000
    C1019    C        0.68938    0.90864    0.87215    1.000
    H762     H        0.67070    0.91170    0.87350    1.000
    H763     H        0.69820    0.92490    0.86780    1.000
    H764     H        0.69590    0.90220    0.88880    1.000
    C1020    C        0.65879    0.92613    0.77992    1.000
    H765     H        0.65180    0.93570    0.76580    1.000
    O171     O        0.68384    0.47004    0.26428    1.000
    O172     O        0.70990    0.47160    0.29760    1.000
    C1021    C        0.69247    0.46374    0.28725    1.000
    C1022    C        0.68343    0.43604    0.29329    1.000
    C1023    C        0.68921    0.42845    0.31533    1.000
    H766     H        0.69610    0.44020    0.32780    1.000
    C1024    C        0.68508    0.39905    0.32251    1.000
    C1025    C        0.69486    0.38761    0.34996    1.000
    C1026    C        0.67179    0.36795    0.35030    1.000
    C1027    C        0.65143    0.36704    0.33157    1.000
    C1028    C        0.66146    0.39057    0.31481    1.000
    C1029    C        0.64396    0.39896    0.28944    1.000
    H767     H        0.62930    0.39050    0.28210    1.000
    C1030    C        0.71811    0.37732    0.34134    1.000
    H768     H        0.73150    0.39080    0.34170    1.000
    H769     H        0.71600    0.37090    0.32360    1.000
    H770     H        0.72330    0.36290    0.35270    1.000
    C1031    C        0.68938    0.40864    0.37215    1.000
    H771     H        0.67070    0.41170    0.37350    1.000
    H772     H        0.69820    0.42490    0.36780    1.000
    H773     H        0.69590    0.40220    0.38880    1.000
    C1032    C        0.65879    0.42613    0.27992    1.000
    H774     H        0.65180    0.43570    0.26580    1.000
    O173     O        0.18384    0.97004    0.26428    1.000
    O174     O        0.20990    0.97160    0.29760    1.000
    C1033    C        0.19247    0.96374    0.28725    1.000
    C1034    C        0.18343    0.93604    0.29329    1.000
    C1035    C        0.18921    0.92845    0.31533    1.000
    H775     H        0.19610    0.94020    0.32780    1.000
    C1036    C        0.18508    0.89905    0.32251    1.000
    C1037    C        0.19486    0.88761    0.34996    1.000
    C1038    C        0.17179    0.86795    0.35030    1.000
    C1039    C        0.15143    0.86704    0.33157    1.000
    C1040    C        0.16146    0.89057    0.31481    1.000
    C1041    C        0.14396    0.89896    0.28944    1.000
    H776     H        0.12930    0.89050    0.28210    1.000
    C1042    C        0.21811    0.87732    0.34134    1.000
    H777     H        0.23150    0.89080    0.34170    1.000
    H778     H        0.21600    0.87090    0.32360    1.000
    H779     H        0.22330    0.86290    0.35270    1.000
    C1043    C        0.18938    0.90864    0.37215    1.000
    H780     H        0.17070    0.91170    0.37350    1.000
    H781     H        0.19820    0.92490    0.36780    1.000
    H782     H        0.19590    0.90220    0.38880    1.000
    C1044    C        0.15879    0.92613    0.27992    1.000
    H783     H        0.15180    0.93570    0.26580    1.000
    O175     O        0.18384    0.47004    0.76428    1.000
    O176     O        0.20990    0.47160    0.79760    1.000
    C1045    C        0.19247    0.46374    0.78725    1.000
    C1046    C        0.18343    0.43604    0.79329    1.000
    C1047    C        0.18921    0.42845    0.81533    1.000
    H784     H        0.19610    0.44020    0.82780    1.000
    C1048    C        0.18508    0.39905    0.82251    1.000
    C1049    C        0.19486    0.38761    0.84996    1.000
    C1050    C        0.17179    0.36795    0.85030    1.000
    C1051    C        0.15143    0.36704    0.83157    1.000
    C1052    C        0.16146    0.39057    0.81481    1.000
    C1053    C        0.14396    0.39896    0.78944    1.000
    H785     H        0.12930    0.39050    0.78210    1.000
    C1054    C        0.21811    0.37732    0.84134    1.000
    H786     H        0.23150    0.39080    0.84170    1.000
    H787     H        0.21600    0.37090    0.82360    1.000
    H788     H        0.22330    0.36290    0.85270    1.000
    C1055    C        0.18938    0.40864    0.87215    1.000
    H789     H        0.17070    0.41170    0.87350    1.000
    H790     H        0.19820    0.42490    0.86780    1.000
    H791     H        0.19590    0.40220    0.88880    1.000
    C1056    C        0.15879    0.42613    0.77992    1.000
    H792     H        0.15180    0.43570    0.76580    1.000
    O177     O        0.31616    0.02996    0.76428    1.000
    O178     O        0.29010    0.02840    0.79760    1.000
    C1057    C        0.30753    0.03626    0.78725    1.000
    C1058    C        0.31657    0.06396    0.79329    1.000
    C1059    C        0.31079    0.07155    0.81533    1.000
    H793     H        0.30390    0.05980    0.82780    1.000
    C1060    C        0.31492    0.10095    0.82251    1.000
    C1061    C        0.30514    0.11239    0.84996    1.000
    C1062    C        0.32821    0.13205    0.85030    1.000
    C1063    C        0.34857    0.13296    0.83157    1.000
    C1064    C        0.33854    0.10943    0.81481    1.000
    C1065    C        0.35604    0.10104    0.78944    1.000
    H794     H        0.37070    0.10950    0.78210    1.000
    C1066    C        0.28189    0.12268    0.84134    1.000
    H795     H        0.26850    0.10920    0.84170    1.000
    H796     H        0.28400    0.12910    0.82360    1.000
    H797     H        0.27670    0.13710    0.85270    1.000
    C1067    C        0.31062    0.09136    0.87215    1.000
    H798     H        0.32930    0.08830    0.87350    1.000
    H799     H        0.30180    0.07510    0.86780    1.000
    H800     H        0.30410    0.09780    0.88880    1.000
    C1068    C        0.34121    0.07387    0.77992    1.000
    H801     H        0.34820    0.06430    0.76580    1.000
    O179     O        0.31616    0.52996    0.26428    1.000
    O180     O        0.29010    0.52840    0.29760    1.000
    C1069    C        0.30753    0.53626    0.28725    1.000
    C1070    C        0.31657    0.56396    0.29329    1.000
    C1071    C        0.31079    0.57155    0.31533    1.000
    H802     H        0.30390    0.55980    0.32780    1.000
    C1072    C        0.31492    0.60095    0.32251    1.000
    C1073    C        0.30514    0.61239    0.34996    1.000
    C1074    C        0.32821    0.63205    0.35030    1.000
    C1075    C        0.34857    0.63296    0.33157    1.000
    C1076    C        0.33854    0.60943    0.31481    1.000
    C1077    C        0.35604    0.60104    0.28944    1.000
    H803     H        0.37070    0.60950    0.28210    1.000
    C1078    C        0.28189    0.62268    0.34134    1.000
    H804     H        0.26850    0.60920    0.34170    1.000
    H805     H        0.28400    0.62910    0.32360    1.000
    H806     H        0.27670    0.63710    0.35270    1.000
    C1079    C        0.31062    0.59136    0.37215    1.000
    H807     H        0.32930    0.58830    0.37350    1.000
    H808     H        0.30180    0.57510    0.36780    1.000
    H809     H        0.30410    0.59780    0.38880    1.000
    C1080    C        0.34121    0.57387    0.27992    1.000
    H810     H        0.34820    0.56430    0.26580    1.000
    O181     O        0.81616    0.02996    0.26428    1.000
    O182     O        0.79010    0.02840    0.29760    1.000
    C1081    C        0.80753    0.03626    0.28725    1.000
    C1082    C        0.81657    0.06396    0.29329    1.000
    C1083    C        0.81079    0.07155    0.31533    1.000
    H811     H        0.80390    0.05980    0.32780    1.000
    C1084    C        0.81492    0.10095    0.32251    1.000
    C1085    C        0.80514    0.11239    0.34996    1.000
    C1086    C        0.82821    0.13205    0.35030    1.000
    C1087    C        0.84857    0.13296    0.33157    1.000
    C1088    C        0.83854    0.10943    0.31481    1.000
    C1089    C        0.85604    0.10104    0.28944    1.000
    H812     H        0.87070    0.10950    0.28210    1.000
    C1090    C        0.78189    0.12268    0.34134    1.000
    H813     H        0.76850    0.10920    0.34170    1.000
    H814     H        0.78400    0.12910    0.32360    1.000
    H815     H        0.77670    0.13710    0.35270    1.000
    C1091    C        0.81062    0.09136    0.37215    1.000
    H816     H        0.82930    0.08830    0.37350    1.000
    H817     H        0.80180    0.07510    0.36780    1.000
    H818     H        0.80410    0.09780    0.38880    1.000
    C1092    C        0.84121    0.07387    0.27992    1.000
    H819     H        0.84820    0.06430    0.26580    1.000
    O183     O        0.81616    0.52996    0.76428    1.000
    O184     O        0.79010    0.52840    0.79760    1.000
    C1093    C        0.80753    0.53626    0.78725    1.000
    C1094    C        0.81657    0.56396    0.79329    1.000
    C1095    C        0.81079    0.57155    0.81533    1.000
    H820     H        0.80390    0.55980    0.82780    1.000
    C1096    C        0.81492    0.60095    0.82251    1.000
    C1097    C        0.80514    0.61239    0.84996    1.000
    C1098    C        0.82821    0.63205    0.85030    1.000
    C1099    C        0.84857    0.63296    0.83157    1.000
    C1100    C        0.83854    0.60943    0.81481    1.000
    C1101    C        0.85604    0.60104    0.78944    1.000
    H821     H        0.87070    0.60950    0.78210    1.000
    C1102    C        0.78189    0.62268    0.84134    1.000
    H822     H        0.76850    0.60920    0.84170    1.000
    H823     H        0.78400    0.62910    0.82360    1.000
    H824     H        0.77670    0.63710    0.85270    1.000
    C1103    C        0.81062    0.59136    0.87215    1.000
    H825     H        0.82930    0.58830    0.87350    1.000
    H826     H        0.80180    0.57510    0.86780    1.000
    H827     H        0.80410    0.59780    0.88880    1.000
    C1104    C        0.84121    0.57387    0.77992    1.000
    H828     H        0.84820    0.56430    0.76580    1.000
    O185     O        0.31616    0.97004    0.23572    1.000
    O186     O        0.29010    0.97160    0.20240    1.000
    C1105    C        0.30753    0.96374    0.21275    1.000
    C1106    C        0.31657    0.93604    0.20671    1.000
    C1107    C        0.31079    0.92845    0.18467    1.000
    H829     H        0.30390    0.94020    0.17220    1.000
    C1108    C        0.31492    0.89905    0.17749    1.000
    C1109    C        0.30514    0.88761    0.15004    1.000
    C1110    C        0.32821    0.86795    0.14970    1.000
    C1111    C        0.34857    0.86704    0.16843    1.000
    C1112    C        0.33854    0.89057    0.18519    1.000
    C1113    C        0.35604    0.89896    0.21056    1.000
    H830     H        0.37070    0.89050    0.21790    1.000
    C1114    C        0.28189    0.87732    0.15866    1.000
    H831     H        0.26850    0.89080    0.15830    1.000
    H832     H        0.28400    0.87090    0.17640    1.000
    H833     H        0.27670    0.86290    0.14730    1.000
    C1115    C        0.31062    0.90864    0.12785    1.000
    H834     H        0.32930    0.91170    0.12650    1.000
    H835     H        0.30180    0.92490    0.13220    1.000
    H836     H        0.30410    0.90220    0.11120    1.000
    C1116    C        0.34121    0.92613    0.22008    1.000
    H837     H        0.34820    0.93570    0.23420    1.000
    O187     O        0.31616    0.47004    0.73572    1.000
    O188     O        0.29010    0.47160    0.70240    1.000
    C1117    C        0.30753    0.46374    0.71275    1.000
    C1118    C        0.31657    0.43604    0.70671    1.000
    C1119    C        0.31079    0.42845    0.68467    1.000
    H838     H        0.30390    0.44020    0.67220    1.000
    C1120    C        0.31492    0.39905    0.67749    1.000
    C1121    C        0.30514    0.38761    0.65004    1.000
    C1122    C        0.32821    0.36795    0.64970    1.000
    C1123    C        0.34857    0.36704    0.66843    1.000
    C1124    C        0.33854    0.39057    0.68519    1.000
    C1125    C        0.35604    0.39896    0.71056    1.000
    H839     H        0.37070    0.39050    0.71790    1.000
    C1126    C        0.28189    0.37732    0.65866    1.000
    H840     H        0.26850    0.39080    0.65830    1.000
    H841     H        0.28400    0.37090    0.67640    1.000
    H842     H        0.27670    0.36290    0.64730    1.000
    C1127    C        0.31062    0.40864    0.62785    1.000
    H843     H        0.32930    0.41170    0.62650    1.000
    H844     H        0.30180    0.42490    0.63220    1.000
    H845     H        0.30410    0.40220    0.61120    1.000
    C1128    C        0.34121    0.42613    0.72008    1.000
    H846     H        0.34820    0.43570    0.73420    1.000
    O189     O        0.81616    0.97004    0.73572    1.000
    O190     O        0.79010    0.97160    0.70240    1.000
    C1129    C        0.80753    0.96374    0.71275    1.000
    C1130    C        0.81657    0.93604    0.70671    1.000
    C1131    C        0.81079    0.92845    0.68467    1.000
    H847     H        0.80390    0.94020    0.67220    1.000
    C1132    C        0.81492    0.89905    0.67749    1.000
    C1133    C        0.80514    0.88761    0.65004    1.000
    C1134    C        0.82821    0.86795    0.64970    1.000
    C1135    C        0.84857    0.86704    0.66843    1.000
    C1136    C        0.83854    0.89057    0.68519    1.000
    C1137    C        0.85604    0.89896    0.71056    1.000
    H848     H        0.87070    0.89050    0.71790    1.000
    C1138    C        0.78189    0.87732    0.65866    1.000
    H849     H        0.76850    0.89080    0.65830    1.000
    H850     H        0.78400    0.87090    0.67640    1.000
    H851     H        0.77670    0.86290    0.64730    1.000
    C1139    C        0.81062    0.90864    0.62785    1.000
    H852     H        0.82930    0.91170    0.62650    1.000
    H853     H        0.80180    0.92490    0.63220    1.000
    H854     H        0.80410    0.90220    0.61120    1.000
    C1140    C        0.84121    0.92613    0.72008    1.000
    H855     H        0.84820    0.93570    0.73420    1.000
    O191     O        0.81616    0.47004    0.23572    1.000
    O192     O        0.79010    0.47160    0.20240    1.000
    C1141    C        0.80753    0.46374    0.21275    1.000
    C1142    C        0.81657    0.43604    0.20671    1.000
    C1143    C        0.81079    0.42845    0.18467    1.000
    H856     H        0.80390    0.44020    0.17220    1.000
    C1144    C        0.81492    0.39905    0.17749    1.000
    C1145    C        0.80514    0.38761    0.15004    1.000
    C1146    C        0.82821    0.36795    0.14970    1.000
    C1147    C        0.84857    0.36704    0.16843    1.000
    C1148    C        0.83854    0.39057    0.18519    1.000
    C1149    C        0.85604    0.39896    0.21056    1.000
    H857     H        0.87070    0.39050    0.21790    1.000
    C1150    C        0.78189    0.37732    0.15866    1.000
    H858     H        0.76850    0.39080    0.15830    1.000
    H859     H        0.78400    0.37090    0.17640    1.000
    H860     H        0.77670    0.36290    0.14730    1.000
    C1151    C        0.81062    0.40864    0.12785    1.000
    H861     H        0.82930    0.41170    0.12650    1.000
    H862     H        0.80180    0.42490    0.13220    1.000
    H863     H        0.80410    0.40220    0.11120    1.000
    C1152    C        0.84121    0.42613    0.22008    1.000
    H864     H        0.84820    0.43570    0.23420    1.000
    O193     O        0.73572    0.47004    0.81616    1.000
    O194     O        0.70240    0.47160    0.79010    1.000
    C1153    C        0.71275    0.46374    0.80753    1.000
    C1154    C        0.70671    0.43604    0.81657    1.000
    C1155    C        0.68467    0.42845    0.81079    1.000
    H865     H        0.67220    0.44020    0.80390    1.000
    C1156    C        0.67749    0.39905    0.81492    1.000
    C1157    C        0.65004    0.38761    0.80514    1.000
    C1158    C        0.64970    0.36795    0.82821    1.000
    C1159    C        0.66843    0.36704    0.84857    1.000
    C1160    C        0.68519    0.39057    0.83854    1.000
    C1161    C        0.71056    0.39896    0.85604    1.000
    H866     H        0.71790    0.39050    0.87070    1.000
    C1162    C        0.65866    0.37732    0.78189    1.000
    H867     H        0.65830    0.39080    0.76850    1.000
    H868     H        0.67640    0.37090    0.78400    1.000
    H869     H        0.64730    0.36290    0.77670    1.000
    C1163    C        0.62785    0.40864    0.81062    1.000
    H870     H        0.62650    0.41170    0.82930    1.000
    H871     H        0.63220    0.42490    0.80180    1.000
    H872     H        0.61120    0.40220    0.80410    1.000
    C1164    C        0.72008    0.42613    0.84121    1.000
    H873     H        0.73420    0.43570    0.84820    1.000
    O195     O        0.73572    0.97004    0.31616    1.000
    O196     O        0.70240    0.97160    0.29010    1.000
    C1165    C        0.71275    0.96374    0.30753    1.000
    C1166    C        0.70671    0.93604    0.31657    1.000
    C1167    C        0.68467    0.92845    0.31079    1.000
    H874     H        0.67220    0.94020    0.30390    1.000
    C1168    C        0.67749    0.89905    0.31492    1.000
    C1169    C        0.65004    0.88761    0.30514    1.000
    C1170    C        0.64970    0.86795    0.32821    1.000
    C1171    C        0.66843    0.86704    0.34857    1.000
    C1172    C        0.68519    0.89057    0.33854    1.000
    C1173    C        0.71056    0.89896    0.35604    1.000
    H875     H        0.71790    0.89050    0.37070    1.000
    C1174    C        0.65866    0.87732    0.28189    1.000
    H876     H        0.65830    0.89080    0.26850    1.000
    H877     H        0.67640    0.87090    0.28400    1.000
    H878     H        0.64730    0.86290    0.27670    1.000
    C1175    C        0.62785    0.90864    0.31062    1.000
    H879     H        0.62650    0.91170    0.32930    1.000
    H880     H        0.63220    0.92490    0.30180    1.000
    H881     H        0.61120    0.90220    0.30410    1.000
    C1176    C        0.72008    0.92613    0.34121    1.000
    H882     H        0.73420    0.93570    0.34820    1.000
    O197     O        0.23572    0.47004    0.31616    1.000
    O198     O        0.20240    0.47160    0.29010    1.000
    C1177    C        0.21275    0.46374    0.30753    1.000
    C1178    C        0.20671    0.43604    0.31657    1.000
    C1179    C        0.18467    0.42845    0.31079    1.000
    H883     H        0.17220    0.44020    0.30390    1.000
    C1180    C        0.17749    0.39905    0.31492    1.000
    C1181    C        0.15004    0.38761    0.30514    1.000
    C1182    C        0.14970    0.36795    0.32821    1.000
    C1183    C        0.16843    0.36704    0.34857    1.000
    C1184    C        0.18519    0.39057    0.33854    1.000
    C1185    C        0.21056    0.39896    0.35604    1.000
    H884     H        0.21790    0.39050    0.37070    1.000
    C1186    C        0.15866    0.37732    0.28189    1.000
    H885     H        0.15830    0.39080    0.26850    1.000
    H886     H        0.17640    0.37090    0.28400    1.000
    H887     H        0.14730    0.36290    0.27670    1.000
    C1187    C        0.12785    0.40864    0.31062    1.000
    H888     H        0.12650    0.41170    0.32930    1.000
    H889     H        0.13220    0.42490    0.30180    1.000
    H890     H        0.11120    0.40220    0.30410    1.000
    C1188    C        0.22008    0.42613    0.34121    1.000
    H891     H        0.23420    0.43570    0.34820    1.000
    O199     O        0.23572    0.97004    0.81616    1.000
    O200     O        0.20240    0.97160    0.79010    1.000
    C1189    C        0.21275    0.96374    0.80753    1.000
    C1190    C        0.20671    0.93604    0.81657    1.000
    C1191    C        0.18467    0.92845    0.81079    1.000
    H892     H        0.17220    0.94020    0.80390    1.000
    C1192    C        0.17749    0.89905    0.81492    1.000
    C1193    C        0.15004    0.88761    0.80514    1.000
    C1194    C        0.14970    0.86795    0.82821    1.000
    C1195    C        0.16843    0.86704    0.84857    1.000
    C1196    C        0.18519    0.89057    0.83854    1.000
    C1197    C        0.21056    0.89896    0.85604    1.000
    H893     H        0.21790    0.89050    0.87070    1.000
    C1198    C        0.15866    0.87732    0.78189    1.000
    H894     H        0.15830    0.89080    0.76850    1.000
    H895     H        0.17640    0.87090    0.78400    1.000
    H896     H        0.14730    0.86290    0.77670    1.000
    C1199    C        0.12785    0.90864    0.81062    1.000
    H897     H        0.12650    0.91170    0.82930    1.000
    H898     H        0.13220    0.92490    0.80180    1.000
    H899     H        0.11120    0.90220    0.80410    1.000
    C1200    C        0.22008    0.92613    0.84121    1.000
    H900     H        0.23420    0.93570    0.84820    1.000
    O201     O        0.26428    0.52996    0.81616    1.000
    O202     O        0.29760    0.52840    0.79010    1.000
    C1201    C        0.28725    0.53626    0.80753    1.000
    C1202    C        0.29329    0.56396    0.81657    1.000
    C1203    C        0.31533    0.57155    0.81079    1.000
    H901     H        0.32780    0.55980    0.80390    1.000
    C1204    C        0.32251    0.60095    0.81492    1.000
    C1205    C        0.34996    0.61239    0.80514    1.000
    C1206    C        0.35030    0.63205    0.82821    1.000
    C1207    C        0.33157    0.63296    0.84857    1.000
    C1208    C        0.31481    0.60943    0.83854    1.000
    C1209    C        0.28944    0.60104    0.85604    1.000
    H902     H        0.28210    0.60950    0.87070    1.000
    C1210    C        0.34134    0.62268    0.78189    1.000
    H903     H        0.34170    0.60920    0.76850    1.000
    H904     H        0.32360    0.62910    0.78400    1.000
    H905     H        0.35270    0.63710    0.77670    1.000
    C1211    C        0.37215    0.59136    0.81062    1.000
    H906     H        0.37350    0.58830    0.82930    1.000
    H907     H        0.36780    0.57510    0.80180    1.000
    H908     H        0.38880    0.59780    0.80410    1.000
    C1212    C        0.27992    0.57387    0.84121    1.000
    H909     H        0.26580    0.56430    0.84820    1.000
    O203     O        0.26428    0.02996    0.31616    1.000
    O204     O        0.29760    0.02840    0.29010    1.000
    C1213    C        0.28725    0.03626    0.30753    1.000
    C1214    C        0.29329    0.06396    0.31657    1.000
    C1215    C        0.31533    0.07155    0.31079    1.000
    H910     H        0.32780    0.05980    0.30390    1.000
    C1216    C        0.32251    0.10095    0.31492    1.000
    C1217    C        0.34996    0.11239    0.30514    1.000
    C1218    C        0.35030    0.13205    0.32821    1.000
    C1219    C        0.33157    0.13296    0.34857    1.000
    C1220    C        0.31481    0.10943    0.33854    1.000
    C1221    C        0.28944    0.10104    0.35604    1.000
    H911     H        0.28210    0.10950    0.37070    1.000
    C1222    C        0.34134    0.12268    0.28189    1.000
    H912     H        0.34170    0.10920    0.26850    1.000
    H913     H        0.32360    0.12910    0.28400    1.000
    H914     H        0.35270    0.13710    0.27670    1.000
    C1223    C        0.37215    0.09136    0.31062    1.000
    H915     H        0.37350    0.08830    0.32930    1.000
    H916     H        0.36780    0.07510    0.30180    1.000
    H917     H        0.38880    0.09780    0.30410    1.000
    C1224    C        0.27992    0.07387    0.34121    1.000
    H918     H        0.26580    0.06430    0.34820    1.000
    O205     O        0.76428    0.52996    0.31616    1.000
    O206     O        0.79760    0.52840    0.29010    1.000
    C1225    C        0.78725    0.53626    0.30753    1.000
    C1226    C        0.79329    0.56396    0.31657    1.000
    C1227    C        0.81533    0.57155    0.31079    1.000
    H919     H        0.82780    0.55980    0.30390    1.000
    C1228    C        0.82251    0.60095    0.31492    1.000
    C1229    C        0.84996    0.61239    0.30514    1.000
    C1230    C        0.85030    0.63205    0.32821    1.000
    C1231    C        0.83157    0.63296    0.34857    1.000
    C1232    C        0.81481    0.60943    0.33854    1.000
    C1233    C        0.78944    0.60104    0.35604    1.000
    H920     H        0.78210    0.60950    0.37070    1.000
    C1234    C        0.84134    0.62268    0.28189    1.000
    H921     H        0.84170    0.60920    0.26850    1.000
    H922     H        0.82360    0.62910    0.28400    1.000
    H923     H        0.85270    0.63710    0.27670    1.000
    C1235    C        0.87215    0.59136    0.31062    1.000
    H924     H        0.87350    0.58830    0.32930    1.000
    H925     H        0.86780    0.57510    0.30180    1.000
    H926     H        0.88880    0.59780    0.30410    1.000
    C1236    C        0.77992    0.57387    0.34121    1.000
    H927     H        0.76580    0.56430    0.34820    1.000
    O207     O        0.76428    0.02996    0.81616    1.000
    O208     O        0.79760    0.02840    0.79010    1.000
    C1237    C        0.78725    0.03626    0.80753    1.000
    C1238    C        0.79329    0.06396    0.81657    1.000
    C1239    C        0.81533    0.07155    0.81079    1.000
    H928     H        0.82780    0.05980    0.80390    1.000
    C1240    C        0.82251    0.10095    0.81492    1.000
    C1241    C        0.84996    0.11239    0.80514    1.000
    C1242    C        0.85030    0.13205    0.82821    1.000
    C1243    C        0.83157    0.13296    0.84857    1.000
    C1244    C        0.81481    0.10943    0.83854    1.000
    C1245    C        0.78944    0.10104    0.85604    1.000
    H929     H        0.78210    0.10950    0.87070    1.000
    C1246    C        0.84134    0.12268    0.78189    1.000
    H930     H        0.84170    0.10920    0.76850    1.000
    H931     H        0.82360    0.12910    0.78400    1.000
    H932     H        0.85270    0.13710    0.77670    1.000
    C1247    C        0.87215    0.09136    0.81062    1.000
    H933     H        0.87350    0.08830    0.82930    1.000
    H934     H        0.86780    0.07510    0.80180    1.000
    H935     H        0.88880    0.09780    0.80410    1.000
    C1248    C        0.77992    0.07387    0.84121    1.000
    H936     H        0.76580    0.06430    0.84820    1.000
    O209     O        0.26428    0.47004    0.18384    1.000
    O210     O        0.29760    0.47160    0.20990    1.000
    C1249    C        0.28725    0.46374    0.19247    1.000
    C1250    C        0.29329    0.43604    0.18343    1.000
    C1251    C        0.31533    0.42845    0.18921    1.000
    H937     H        0.32780    0.44020    0.19610    1.000
    C1252    C        0.32251    0.39905    0.18508    1.000
    C1253    C        0.34996    0.38761    0.19486    1.000
    C1254    C        0.35030    0.36795    0.17179    1.000
    C1255    C        0.33157    0.36704    0.15143    1.000
    C1256    C        0.31481    0.39057    0.16146    1.000
    C1257    C        0.28944    0.39896    0.14396    1.000
    H938     H        0.28210    0.39050    0.12930    1.000
    C1258    C        0.34134    0.37732    0.21811    1.000
    H939     H        0.34170    0.39080    0.23150    1.000
    H940     H        0.32360    0.37090    0.21600    1.000
    H941     H        0.35270    0.36290    0.22330    1.000
    C1259    C        0.37215    0.40864    0.18938    1.000
    H942     H        0.37350    0.41170    0.17070    1.000
    H943     H        0.36780    0.42490    0.19820    1.000
    H944     H        0.38880    0.40220    0.19590    1.000
    C1260    C        0.27992    0.42613    0.15879    1.000
    H945     H        0.26580    0.43570    0.15180    1.000
    O211     O        0.26428    0.97004    0.68384    1.000
    O212     O        0.29760    0.97160    0.70990    1.000
    C1261    C        0.28725    0.96374    0.69247    1.000
    C1262    C        0.29329    0.93604    0.68343    1.000
    C1263    C        0.31533    0.92845    0.68921    1.000
    H946     H        0.32780    0.94020    0.69610    1.000
    C1264    C        0.32251    0.89905    0.68508    1.000
    C1265    C        0.34996    0.88761    0.69486    1.000
    C1266    C        0.35030    0.86795    0.67179    1.000
    C1267    C        0.33157    0.86704    0.65143    1.000
    C1268    C        0.31481    0.89057    0.66146    1.000
    C1269    C        0.28944    0.89896    0.64396    1.000
    H947     H        0.28210    0.89050    0.62930    1.000
    C1270    C        0.34134    0.87732    0.71811    1.000
    H948     H        0.34170    0.89080    0.73150    1.000
    H949     H        0.32360    0.87090    0.71600    1.000
    H950     H        0.35270    0.86290    0.72330    1.000
    C1271    C        0.37215    0.90864    0.68938    1.000
    H951     H        0.37350    0.91170    0.67070    1.000
    H952     H        0.36780    0.92490    0.69820    1.000
    H953     H        0.38880    0.90220    0.69590    1.000
    C1272    C        0.27992    0.92613    0.65879    1.000
    H954     H        0.26580    0.93570    0.65180    1.000
    O213     O        0.76428    0.47004    0.68384    1.000
    O214     O        0.79760    0.47160    0.70990    1.000
    C1273    C        0.78725    0.46374    0.69247    1.000
    C1274    C        0.79329    0.43604    0.68343    1.000
    C1275    C        0.81533    0.42845    0.68921    1.000
    H955     H        0.82780    0.44020    0.69610    1.000
    C1276    C        0.82251    0.39905    0.68508    1.000
    C1277    C        0.84996    0.38761    0.69486    1.000
    C1278    C        0.85030    0.36795    0.67179    1.000
    C1279    C        0.83157    0.36704    0.65143    1.000
    C1280    C        0.81481    0.39057    0.66146    1.000
    C1281    C        0.78944    0.39896    0.64396    1.000
    H956     H        0.78210    0.39050    0.62930    1.000
    C1282    C        0.84134    0.37732    0.71811    1.000
    H957     H        0.84170    0.39080    0.73150    1.000
    H958     H        0.82360    0.37090    0.71600    1.000
    H959     H        0.85270    0.36290    0.72330    1.000
    C1283    C        0.87215    0.40864    0.68938    1.000
    H960     H        0.87350    0.41170    0.67070    1.000
    H961     H        0.86780    0.42490    0.69820    1.000
    H962     H        0.88880    0.40220    0.69590    1.000
    C1284    C        0.77992    0.42613    0.65879    1.000
    H963     H        0.76580    0.43570    0.65180    1.000
    O215     O        0.76428    0.97004    0.18384    1.000
    O216     O        0.79760    0.97160    0.20990    1.000
    C1285    C        0.78725    0.96374    0.19247    1.000
    C1286    C        0.79329    0.93604    0.18343    1.000
    C1287    C        0.81533    0.92845    0.18921    1.000
    H964     H        0.82780    0.94020    0.19610    1.000
    C1288    C        0.82251    0.89905    0.18508    1.000
    C1289    C        0.84996    0.88761    0.19486    1.000
    C1290    C        0.85030    0.86795    0.17179    1.000
    C1291    C        0.83157    0.86704    0.15143    1.000
    C1292    C        0.81481    0.89057    0.16146    1.000
    C1293    C        0.78944    0.89896    0.14396    1.000
    H965     H        0.78210    0.89050    0.12930    1.000
    C1294    C        0.84134    0.87732    0.21811    1.000
    H966     H        0.84170    0.89080    0.23150    1.000
    H967     H        0.82360    0.87090    0.21600    1.000
    H968     H        0.85270    0.86290    0.22330    1.000
    C1295    C        0.87215    0.90864    0.18938    1.000
    H969     H        0.87350    0.91170    0.17070    1.000
    H970     H        0.86780    0.92490    0.19820    1.000
    H971     H        0.88880    0.90220    0.19590    1.000
    C1296    C        0.77992    0.92613    0.15879    1.000
    H972     H        0.76580    0.93570    0.15180    1.000
    O217     O        0.73572    0.52996    0.18384    1.000
    O218     O        0.70240    0.52840    0.20990    1.000
    C1297    C        0.71275    0.53626    0.19247    1.000
    C1298    C        0.70671    0.56396    0.18343    1.000
    C1299    C        0.68467    0.57155    0.18921    1.000
    H973     H        0.67220    0.55980    0.19610    1.000
    C1300    C        0.67749    0.60095    0.18508    1.000
    C1301    C        0.65004    0.61239    0.19486    1.000
    C1302    C        0.64970    0.63205    0.17179    1.000
    C1303    C        0.66843    0.63296    0.15143    1.000
    C1304    C        0.68519    0.60943    0.16146    1.000
    C1305    C        0.71056    0.60104    0.14396    1.000
    H974     H        0.71790    0.60950    0.12930    1.000
    C1306    C        0.65866    0.62268    0.21811    1.000
    H975     H        0.65830    0.60920    0.23150    1.000
    H976     H        0.67640    0.62910    0.21600    1.000
    H977     H        0.64730    0.63710    0.22330    1.000
    C1307    C        0.62785    0.59136    0.18938    1.000
    H978     H        0.62650    0.58830    0.17070    1.000
    H979     H        0.63220    0.57510    0.19820    1.000
    H980     H        0.61120    0.59780    0.19590    1.000
    C1308    C        0.72008    0.57387    0.15879    1.000
    H981     H        0.73420    0.56430    0.15180    1.000
    O219     O        0.73572    0.02996    0.68384    1.000
    O220     O        0.70240    0.02840    0.70990    1.000
    C1309    C        0.71275    0.03626    0.69247    1.000
    C1310    C        0.70671    0.06396    0.68343    1.000
    C1311    C        0.68467    0.07155    0.68921    1.000
    H982     H        0.67220    0.05980    0.69610    1.000
    C1312    C        0.67749    0.10095    0.68508    1.000
    C1313    C        0.65004    0.11239    0.69486    1.000
    C1314    C        0.64970    0.13205    0.67179    1.000
    C1315    C        0.66843    0.13296    0.65143    1.000
    C1316    C        0.68519    0.10943    0.66146    1.000
    C1317    C        0.71056    0.10104    0.64396    1.000
    H983     H        0.71790    0.10950    0.62930    1.000
    C1318    C        0.65866    0.12268    0.71811    1.000
    H984     H        0.65830    0.10920    0.73150    1.000
    H985     H        0.67640    0.12910    0.71600    1.000
    H986     H        0.64730    0.13710    0.72330    1.000
    C1319    C        0.62785    0.09136    0.68938    1.000
    H987     H        0.62650    0.08830    0.67070    1.000
    H988     H        0.63220    0.07510    0.69820    1.000
    H989     H        0.61120    0.09780    0.69590    1.000
    C1320    C        0.72008    0.07387    0.65879    1.000
    H990     H        0.73420    0.06430    0.65180    1.000
    O221     O        0.23572    0.52996    0.68384    1.000
    O222     O        0.20240    0.52840    0.70990    1.000
    C1321    C        0.21275    0.53626    0.69247    1.000
    C1322    C        0.20671    0.56396    0.68343    1.000
    C1323    C        0.18467    0.57155    0.68921    1.000
    H991     H        0.17220    0.55980    0.69610    1.000
    C1324    C        0.17749    0.60095    0.68508    1.000
    C1325    C        0.15004    0.61239    0.69486    1.000
    C1326    C        0.14970    0.63205    0.67179    1.000
    C1327    C        0.16843    0.63296    0.65143    1.000
    C1328    C        0.18519    0.60943    0.66146    1.000
    C1329    C        0.21056    0.60104    0.64396    1.000
    H992     H        0.21790    0.60950    0.62930    1.000
    C1330    C        0.15866    0.62268    0.71811    1.000
    H993     H        0.15830    0.60920    0.73150    1.000
    H994     H        0.17640    0.62910    0.71600    1.000
    H995     H        0.14730    0.63710    0.72330    1.000
    C1331    C        0.12785    0.59136    0.68938    1.000
    H996     H        0.12650    0.58830    0.67070    1.000
    H997     H        0.13220    0.57510    0.69820    1.000
    H998     H        0.11120    0.59780    0.69590    1.000
    C1332    C        0.22008    0.57387    0.65879    1.000
    H999     H        0.23420    0.56430    0.65180    1.000
    O223     O        0.23572    0.02996    0.18384    1.000
    O224     O        0.20240    0.02840    0.20990    1.000
    C1333    C        0.21275    0.03626    0.19247    1.000
    C1334    C        0.20671    0.06396    0.18343    1.000
    C1335    C        0.18467    0.07155    0.18921    1.000
    H1000    H        0.17220    0.05980    0.19610    1.000
    C1336    C        0.17749    0.10095    0.18508    1.000
    C1337    C        0.15004    0.11239    0.19486    1.000
    C1338    C        0.14970    0.13205    0.17179    1.000
    C1339    C        0.16843    0.13296    0.15143    1.000
    C1340    C        0.18519    0.10943    0.16146    1.000
    C1341    C        0.21056    0.10104    0.14396    1.000
    H1001    H        0.21790    0.10950    0.12930    1.000
    C1342    C        0.15866    0.12268    0.21811    1.000
    H1002    H        0.15830    0.10920    0.23150    1.000
    H1003    H        0.17640    0.12910    0.21600    1.000
    H1004    H        0.14730    0.13710    0.22330    1.000
    C1343    C        0.12785    0.09136    0.18938    1.000
    H1005    H        0.12650    0.08830    0.17070    1.000
    H1006    H        0.13220    0.07510    0.19820    1.000
    H1007    H        0.11120    0.09780    0.19590    1.000
    C1344    C        0.22008    0.07387    0.15879    1.000
    H1008    H        0.23420    0.06430    0.15180    1.000
    O225     O        0.81616    0.73572    0.47004    1.000
    O226     O        0.79010    0.70240    0.47160    1.000
    C1345    C        0.80753    0.71275    0.46374    1.000
    C1346    C        0.81657    0.70671    0.43604    1.000
    C1347    C        0.81079    0.68467    0.42845    1.000
    H1009    H        0.80390    0.67220    0.44020    1.000
    C1348    C        0.81492    0.67749    0.39905    1.000
    C1349    C        0.80514    0.65004    0.38761    1.000
    C1350    C        0.82821    0.64970    0.36795    1.000
    C1351    C        0.84857    0.66843    0.36704    1.000
    C1352    C        0.83854    0.68519    0.39057    1.000
    C1353    C        0.85604    0.71056    0.39896    1.000
    H1010    H        0.87070    0.71790    0.39050    1.000
    C1354    C        0.78189    0.65866    0.37732    1.000
    H1011    H        0.76850    0.65830    0.39080    1.000
    H1012    H        0.78400    0.67640    0.37090    1.000
    H1013    H        0.77670    0.64730    0.36290    1.000
    C1355    C        0.81062    0.62785    0.40864    1.000
    H1014    H        0.82930    0.62650    0.41170    1.000
    H1015    H        0.80180    0.63220    0.42490    1.000
    H1016    H        0.80410    0.61120    0.40220    1.000
    C1356    C        0.84121    0.72008    0.42613    1.000
    H1017    H        0.84820    0.73420    0.43570    1.000
    O227     O        0.81616    0.23572    0.97004    1.000
    O228     O        0.79010    0.20240    0.97160    1.000
    C1357    C        0.80753    0.21275    0.96374    1.000
    C1358    C        0.81657    0.20671    0.93604    1.000
    C1359    C        0.81079    0.18467    0.92845    1.000
    H1018    H        0.80390    0.17220    0.94020    1.000
    C1360    C        0.81492    0.17749    0.89905    1.000
    C1361    C        0.80514    0.15004    0.88761    1.000
    C1362    C        0.82821    0.14970    0.86795    1.000
    C1363    C        0.84857    0.16843    0.86704    1.000
    C1364    C        0.83854    0.18519    0.89057    1.000
    C1365    C        0.85604    0.21056    0.89896    1.000
    H1019    H        0.87070    0.21790    0.89050    1.000
    C1366    C        0.78189    0.15866    0.87732    1.000
    H1020    H        0.76850    0.15830    0.89080    1.000
    H1021    H        0.78400    0.17640    0.87090    1.000
    H1022    H        0.77670    0.14730    0.86290    1.000
    C1367    C        0.81062    0.12785    0.90864    1.000
    H1023    H        0.82930    0.12650    0.91170    1.000
    H1024    H        0.80180    0.13220    0.92490    1.000
    H1025    H        0.80410    0.11120    0.90220    1.000
    C1368    C        0.84121    0.22008    0.92613    1.000
    H1026    H        0.84820    0.23420    0.93570    1.000
    O229     O        0.31616    0.73572    0.97004    1.000
    O230     O        0.29010    0.70240    0.97160    1.000
    C1369    C        0.30753    0.71275    0.96374    1.000
    C1370    C        0.31657    0.70671    0.93604    1.000
    C1371    C        0.31079    0.68467    0.92845    1.000
    H1027    H        0.30390    0.67220    0.94020    1.000
    C1372    C        0.31492    0.67749    0.89905    1.000
    C1373    C        0.30514    0.65004    0.88761    1.000
    C1374    C        0.32821    0.64970    0.86795    1.000
    C1375    C        0.34857    0.66843    0.86704    1.000
    C1376    C        0.33854    0.68519    0.89057    1.000
    C1377    C        0.35604    0.71056    0.89896    1.000
    H1028    H        0.37070    0.71790    0.89050    1.000
    C1378    C        0.28189    0.65866    0.87732    1.000
    H1029    H        0.26850    0.65830    0.89080    1.000
    H1030    H        0.28400    0.67640    0.87090    1.000
    H1031    H        0.27670    0.64730    0.86290    1.000
    C1379    C        0.31062    0.62785    0.90864    1.000
    H1032    H        0.32930    0.62650    0.91170    1.000
    H1033    H        0.30180    0.63220    0.92490    1.000
    H1034    H        0.30410    0.61120    0.90220    1.000
    C1380    C        0.34121    0.72008    0.92613    1.000
    H1035    H        0.34820    0.73420    0.93570    1.000
    O231     O        0.31616    0.23572    0.47004    1.000
    O232     O        0.29010    0.20240    0.47160    1.000
    C1381    C        0.30753    0.21275    0.46374    1.000
    C1382    C        0.31657    0.20671    0.43604    1.000
    C1383    C        0.31079    0.18467    0.42845    1.000
    H1036    H        0.30390    0.17220    0.44020    1.000
    C1384    C        0.31492    0.17749    0.39905    1.000
    C1385    C        0.30514    0.15004    0.38761    1.000
    C1386    C        0.32821    0.14970    0.36795    1.000
    C1387    C        0.34857    0.16843    0.36704    1.000
    C1388    C        0.33854    0.18519    0.39057    1.000
    C1389    C        0.35604    0.21056    0.39896    1.000
    H1037    H        0.37070    0.21790    0.39050    1.000
    C1390    C        0.28189    0.15866    0.37732    1.000
    H1038    H        0.26850    0.15830    0.39080    1.000
    H1039    H        0.28400    0.17640    0.37090    1.000
    H1040    H        0.27670    0.14730    0.36290    1.000
    C1391    C        0.31062    0.12785    0.40864    1.000
    H1041    H        0.32930    0.12650    0.41170    1.000
    H1042    H        0.30180    0.13220    0.42490    1.000
    H1043    H        0.30410    0.11120    0.40220    1.000
    C1392    C        0.34121    0.22008    0.42613    1.000
    H1044    H        0.34820    0.23420    0.43570    1.000
    O233     O        0.81616    0.26428    0.52996    1.000
    O234     O        0.79010    0.29760    0.52840    1.000
    C1393    C        0.80753    0.28725    0.53626    1.000
    C1394    C        0.81657    0.29329    0.56396    1.000
    C1395    C        0.81079    0.31533    0.57155    1.000
    H1045    H        0.80390    0.32780    0.55980    1.000
    C1396    C        0.81492    0.32251    0.60095    1.000
    C1397    C        0.80514    0.34996    0.61239    1.000
    C1398    C        0.82821    0.35030    0.63205    1.000
    C1399    C        0.84857    0.33157    0.63296    1.000
    C1400    C        0.83854    0.31481    0.60943    1.000
    C1401    C        0.85604    0.28944    0.60104    1.000
    H1046    H        0.87070    0.28210    0.60950    1.000
    C1402    C        0.78189    0.34134    0.62268    1.000
    H1047    H        0.76850    0.34170    0.60920    1.000
    H1048    H        0.78400    0.32360    0.62910    1.000
    H1049    H        0.77670    0.35270    0.63710    1.000
    C1403    C        0.81062    0.37215    0.59136    1.000
    H1050    H        0.82930    0.37350    0.58830    1.000
    H1051    H        0.80180    0.36780    0.57510    1.000
    H1052    H        0.80410    0.38880    0.59780    1.000
    C1404    C        0.84121    0.27992    0.57387    1.000
    H1053    H        0.84820    0.26580    0.56430    1.000
    O235     O        0.81616    0.76428    0.02996    1.000
    O236     O        0.79010    0.79760    0.02840    1.000
    C1405    C        0.80753    0.78725    0.03626    1.000
    C1406    C        0.81657    0.79329    0.06396    1.000
    C1407    C        0.81079    0.81533    0.07155    1.000
    H1054    H        0.80390    0.82780    0.05980    1.000
    C1408    C        0.81492    0.82251    0.10095    1.000
    C1409    C        0.80514    0.84996    0.11239    1.000
    C1410    C        0.82821    0.85030    0.13205    1.000
    C1411    C        0.84857    0.83157    0.13296    1.000
    C1412    C        0.83854    0.81481    0.10943    1.000
    C1413    C        0.85604    0.78944    0.10104    1.000
    H1055    H        0.87070    0.78210    0.10950    1.000
    C1414    C        0.78189    0.84134    0.12268    1.000
    H1056    H        0.76850    0.84170    0.10920    1.000
    H1057    H        0.78400    0.82360    0.12910    1.000
    H1058    H        0.77670    0.85270    0.13710    1.000
    C1415    C        0.81062    0.87215    0.09136    1.000
    H1059    H        0.82930    0.87350    0.08830    1.000
    H1060    H        0.80180    0.86780    0.07510    1.000
    H1061    H        0.80410    0.88880    0.09780    1.000
    C1416    C        0.84121    0.77992    0.07387    1.000
    H1062    H        0.84820    0.76580    0.06430    1.000
    O237     O        0.31616    0.26428    0.02996    1.000
    O238     O        0.29010    0.29760    0.02840    1.000
    C1417    C        0.30753    0.28725    0.03626    1.000
    C1418    C        0.31657    0.29329    0.06396    1.000
    C1419    C        0.31079    0.31533    0.07155    1.000
    H1063    H        0.30390    0.32780    0.05980    1.000
    C1420    C        0.31492    0.32251    0.10095    1.000
    C1421    C        0.30514    0.34996    0.11239    1.000
    C1422    C        0.32821    0.35030    0.13205    1.000
    C1423    C        0.34857    0.33157    0.13296    1.000
    C1424    C        0.33854    0.31481    0.10943    1.000
    C1425    C        0.35604    0.28944    0.10104    1.000
    H1064    H        0.37070    0.28210    0.10950    1.000
    C1426    C        0.28189    0.34134    0.12268    1.000
    H1065    H        0.26850    0.34170    0.10920    1.000
    H1066    H        0.28400    0.32360    0.12910    1.000
    H1067    H        0.27670    0.35270    0.13710    1.000
    C1427    C        0.31062    0.37215    0.09136    1.000
    H1068    H        0.32930    0.37350    0.08830    1.000
    H1069    H        0.30180    0.36780    0.07510    1.000
    H1070    H        0.30410    0.38880    0.09780    1.000
    C1428    C        0.34121    0.27992    0.07387    1.000
    H1071    H        0.34820    0.26580    0.06430    1.000
    O239     O        0.31616    0.76428    0.52996    1.000
    O240     O        0.29010    0.79760    0.52840    1.000
    C1429    C        0.30753    0.78725    0.53626    1.000
    C1430    C        0.31657    0.79329    0.56396    1.000
    C1431    C        0.31079    0.81533    0.57155    1.000
    H1072    H        0.30390    0.82780    0.55980    1.000
    C1432    C        0.31492    0.82251    0.60095    1.000
    C1433    C        0.30514    0.84996    0.61239    1.000
    C1434    C        0.32821    0.85030    0.63205    1.000
    C1435    C        0.34857    0.83157    0.63296    1.000
    C1436    C        0.33854    0.81481    0.60943    1.000
    C1437    C        0.35604    0.78944    0.60104    1.000
    H1073    H        0.37070    0.78210    0.60950    1.000
    C1438    C        0.28189    0.84134    0.62268    1.000
    H1074    H        0.26850    0.84170    0.60920    1.000
    H1075    H        0.28400    0.82360    0.62910    1.000
    H1076    H        0.27670    0.85270    0.63710    1.000
    C1439    C        0.31062    0.87215    0.59136    1.000
    H1077    H        0.32930    0.87350    0.58830    1.000
    H1078    H        0.30180    0.86780    0.57510    1.000
    H1079    H        0.30410    0.88880    0.59780    1.000
    C1440    C        0.34121    0.77992    0.57387    1.000
    H1080    H        0.34820    0.76580    0.56430    1.000
    O241     O        0.18384    0.26428    0.47004    1.000
    O242     O        0.20990    0.29760    0.47160    1.000
    C1441    C        0.19247    0.28725    0.46374    1.000
    C1442    C        0.18343    0.29329    0.43604    1.000
    C1443    C        0.18921    0.31533    0.42845    1.000
    H1081    H        0.19610    0.32780    0.44020    1.000
    C1444    C        0.18508    0.32251    0.39905    1.000
    C1445    C        0.19486    0.34996    0.38761    1.000
    C1446    C        0.17179    0.35030    0.36795    1.000
    C1447    C        0.15143    0.33157    0.36704    1.000
    C1448    C        0.16146    0.31481    0.39057    1.000
    C1449    C        0.14396    0.28944    0.39896    1.000
    H1082    H        0.12930    0.28210    0.39050    1.000
    C1450    C        0.21811    0.34134    0.37732    1.000
    H1083    H        0.23150    0.34170    0.39080    1.000
    H1084    H        0.21600    0.32360    0.37090    1.000
    H1085    H        0.22330    0.35270    0.36290    1.000
    C1451    C        0.18938    0.37215    0.40864    1.000
    H1086    H        0.17070    0.37350    0.41170    1.000
    H1087    H        0.19820    0.36780    0.42490    1.000
    H1088    H        0.19590    0.38880    0.40220    1.000
    C1452    C        0.15879    0.27992    0.42613    1.000
    H1089    H        0.15180    0.26580    0.43570    1.000
    O243     O        0.18384    0.76428    0.97004    1.000
    O244     O        0.20990    0.79760    0.97160    1.000
    C1453    C        0.19247    0.78725    0.96374    1.000
    C1454    C        0.18343    0.79329    0.93604    1.000
    C1455    C        0.18921    0.81533    0.92845    1.000
    H1090    H        0.19610    0.82780    0.94020    1.000
    C1456    C        0.18508    0.82251    0.89905    1.000
    C1457    C        0.19486    0.84996    0.88761    1.000
    C1458    C        0.17179    0.85030    0.86795    1.000
    C1459    C        0.15143    0.83157    0.86704    1.000
    C1460    C        0.16146    0.81481    0.89057    1.000
    C1461    C        0.14396    0.78944    0.89896    1.000
    H1091    H        0.12930    0.78210    0.89050    1.000
    C1462    C        0.21811    0.84134    0.87732    1.000
    H1092    H        0.23150    0.84170    0.89080    1.000
    H1093    H        0.21600    0.82360    0.87090    1.000
    H1094    H        0.22330    0.85270    0.86290    1.000
    C1463    C        0.18938    0.87215    0.90864    1.000
    H1095    H        0.17070    0.87350    0.91170    1.000
    H1096    H        0.19820    0.86780    0.92490    1.000
    H1097    H        0.19590    0.88880    0.90220    1.000
    C1464    C        0.15879    0.77992    0.92613    1.000
    H1098    H        0.15180    0.76580    0.93570    1.000
    O245     O        0.68384    0.26428    0.97004    1.000
    O246     O        0.70990    0.29760    0.97160    1.000
    C1465    C        0.69247    0.28725    0.96374    1.000
    C1466    C        0.68343    0.29329    0.93604    1.000
    C1467    C        0.68921    0.31533    0.92845    1.000
    H1099    H        0.69610    0.32780    0.94020    1.000
    C1468    C        0.68508    0.32251    0.89905    1.000
    C1469    C        0.69486    0.34996    0.88761    1.000
    C1470    C        0.67179    0.35030    0.86795    1.000
    C1471    C        0.65143    0.33157    0.86704    1.000
    C1472    C        0.66146    0.31481    0.89057    1.000
    C1473    C        0.64396    0.28944    0.89896    1.000
    H1100    H        0.62930    0.28210    0.89050    1.000
    C1474    C        0.71811    0.34134    0.87732    1.000
    H1101    H        0.73150    0.34170    0.89080    1.000
    H1102    H        0.71600    0.32360    0.87090    1.000
    H1103    H        0.72330    0.35270    0.86290    1.000
    C1475    C        0.68938    0.37215    0.90864    1.000
    H1104    H        0.67070    0.37350    0.91170    1.000
    H1105    H        0.69820    0.36780    0.92490    1.000
    H1106    H        0.69590    0.38880    0.90220    1.000
    C1476    C        0.65879    0.27992    0.92613    1.000
    H1107    H        0.65180    0.26580    0.93570    1.000
    O247     O        0.68384    0.76428    0.47004    1.000
    O248     O        0.70990    0.79760    0.47160    1.000
    C1477    C        0.69247    0.78725    0.46374    1.000
    C1478    C        0.68343    0.79329    0.43604    1.000
    C1479    C        0.68921    0.81533    0.42845    1.000
    H1108    H        0.69610    0.82780    0.44020    1.000
    C1480    C        0.68508    0.82251    0.39905    1.000
    C1481    C        0.69486    0.84996    0.38761    1.000
    C1482    C        0.67179    0.85030    0.36795    1.000
    C1483    C        0.65143    0.83157    0.36704    1.000
    C1484    C        0.66146    0.81481    0.39057    1.000
    C1485    C        0.64396    0.78944    0.39896    1.000
    H1109    H        0.62930    0.78210    0.39050    1.000
    C1486    C        0.71811    0.84134    0.37732    1.000
    H1110    H        0.73150    0.84170    0.39080    1.000
    H1111    H        0.71600    0.82360    0.37090    1.000
    H1112    H        0.72330    0.85270    0.36290    1.000
    C1487    C        0.68938    0.87215    0.40864    1.000
    H1113    H        0.67070    0.87350    0.41170    1.000
    H1114    H        0.69820    0.86780    0.42490    1.000
    H1115    H        0.69590    0.88880    0.40220    1.000
    C1488    C        0.65879    0.77992    0.42613    1.000
    H1116    H        0.65180    0.76580    0.43570    1.000
    O249     O        0.18384    0.73572    0.52996    1.000
    O250     O        0.20990    0.70240    0.52840    1.000
    C1489    C        0.19247    0.71275    0.53626    1.000
    C1490    C        0.18343    0.70671    0.56396    1.000
    C1491    C        0.18921    0.68467    0.57155    1.000
    H1117    H        0.19610    0.67220    0.55980    1.000
    C1492    C        0.18508    0.67749    0.60095    1.000
    C1493    C        0.19486    0.65004    0.61239    1.000
    C1494    C        0.17179    0.64970    0.63205    1.000
    C1495    C        0.15143    0.66843    0.63296    1.000
    C1496    C        0.16146    0.68519    0.60943    1.000
    C1497    C        0.14396    0.71056    0.60104    1.000
    H1118    H        0.12930    0.71790    0.60950    1.000
    C1498    C        0.21811    0.65866    0.62268    1.000
    H1119    H        0.23150    0.65830    0.60920    1.000
    H1120    H        0.21600    0.67640    0.62910    1.000
    H1121    H        0.22330    0.64730    0.63710    1.000
    C1499    C        0.18938    0.62785    0.59136    1.000
    H1122    H        0.17070    0.62650    0.58830    1.000
    H1123    H        0.19820    0.63220    0.57510    1.000
    H1124    H        0.19590    0.61120    0.59780    1.000
    C1500    C        0.15879    0.72008    0.57387    1.000
    H1125    H        0.15180    0.73420    0.56430    1.000
    O251     O        0.18384    0.23572    0.02996    1.000
    O252     O        0.20990    0.20240    0.02840    1.000
    C1501    C        0.19247    0.21275    0.03626    1.000
    C1502    C        0.18343    0.20671    0.06396    1.000
    C1503    C        0.18921    0.18467    0.07155    1.000
    H1126    H        0.19610    0.17220    0.05980    1.000
    C1504    C        0.18508    0.17749    0.10095    1.000
    C1505    C        0.19486    0.15004    0.11239    1.000
    C1506    C        0.17179    0.14970    0.13205    1.000
    C1507    C        0.15143    0.16843    0.13296    1.000
    C1508    C        0.16146    0.18519    0.10943    1.000
    C1509    C        0.14396    0.21056    0.10104    1.000
    H1127    H        0.12930    0.21790    0.10950    1.000
    C1510    C        0.21811    0.15866    0.12268    1.000
    H1128    H        0.23150    0.15830    0.10920    1.000
    H1129    H        0.21600    0.17640    0.12910    1.000
    H1130    H        0.22330    0.14730    0.13710    1.000
    C1511    C        0.18938    0.12785    0.09136    1.000
    H1131    H        0.17070    0.12650    0.08830    1.000
    H1132    H        0.19820    0.13220    0.07510    1.000
    H1133    H        0.19590    0.11120    0.09780    1.000
    C1512    C        0.15879    0.22008    0.07387    1.000
    H1134    H        0.15180    0.23420    0.06430    1.000
    O253     O        0.68384    0.73572    0.02996    1.000
    O254     O        0.70990    0.70240    0.02840    1.000
    C1513    C        0.69247    0.71275    0.03626    1.000
    C1514    C        0.68343    0.70671    0.06396    1.000
    C1515    C        0.68921    0.68467    0.07155    1.000
    H1135    H        0.69610    0.67220    0.05980    1.000
    C1516    C        0.68508    0.67749    0.10095    1.000
    C1517    C        0.69486    0.65004    0.11239    1.000
    C1518    C        0.67179    0.64970    0.13205    1.000
    C1519    C        0.65143    0.66843    0.13296    1.000
    C1520    C        0.66146    0.68519    0.10943    1.000
    C1521    C        0.64396    0.71056    0.10104    1.000
    H1136    H        0.62930    0.71790    0.10950    1.000
    C1522    C        0.71811    0.65866    0.12268    1.000
    H1137    H        0.73150    0.65830    0.10920    1.000
    H1138    H        0.71600    0.67640    0.12910    1.000
    H1139    H        0.72330    0.64730    0.13710    1.000
    C1523    C        0.68938    0.62785    0.09136    1.000
    H1140    H        0.67070    0.62650    0.08830    1.000
    H1141    H        0.69820    0.63220    0.07510    1.000
    H1142    H        0.69590    0.61120    0.09780    1.000
    C1524    C        0.65879    0.72008    0.07387    1.000
    H1143    H        0.65180    0.73420    0.06430    1.000
    O255     O        0.68384    0.23572    0.52996    1.000
    O256     O        0.70990    0.20240    0.52840    1.000
    C1525    C        0.69247    0.21275    0.53626    1.000
    C1526    C        0.68343    0.20671    0.56396    1.000
    C1527    C        0.68921    0.18467    0.57155    1.000
    H1144    H        0.69610    0.17220    0.55980    1.000
    C1528    C        0.68508    0.17749    0.60095    1.000
    C1529    C        0.69486    0.15004    0.61239    1.000
    C1530    C        0.67179    0.14970    0.63205    1.000
    C1531    C        0.65143    0.16843    0.63296    1.000
    C1532    C        0.66146    0.18519    0.60943    1.000
    C1533    C        0.64396    0.21056    0.60104    1.000
    H1145    H        0.62930    0.21790    0.60950    1.000
    C1534    C        0.71811    0.15866    0.62268    1.000
    H1146    H        0.73150    0.15830    0.60920    1.000
    H1147    H        0.71600    0.17640    0.62910    1.000
    H1148    H        0.72330    0.14730    0.63710    1.000
    C1535    C        0.68938    0.12785    0.59136    1.000
    H1149    H        0.67070    0.12650    0.58830    1.000
    H1150    H        0.69820    0.13220    0.57510    1.000
    H1151    H        0.69590    0.11120    0.59780    1.000
    C1536    C        0.65879    0.22008    0.57387    1.000
    H1152    H        0.65180    0.23420    0.56430    1.000
    O257     O        0.47004    0.81616    0.73572    1.000
    O258     O        0.47160    0.79010    0.70240    1.000
    C1537    C        0.46374    0.80753    0.71275    1.000
    C1538    C        0.43604    0.81657    0.70671    1.000
    C1539    C        0.42845    0.81079    0.68467    1.000
    H1153    H        0.44020    0.80390    0.67220    1.000
    C1540    C        0.39905    0.81492    0.67749    1.000
    C1541    C        0.38761    0.80514    0.65004    1.000
    C1542    C        0.36795    0.82821    0.64970    1.000
    C1543    C        0.36704    0.84857    0.66843    1.000
    C1544    C        0.39057    0.83854    0.68519    1.000
    C1545    C        0.39896    0.85604    0.71056    1.000
    H1154    H        0.39050    0.87070    0.71790    1.000
    C1546    C        0.37732    0.78189    0.65866    1.000
    H1155    H        0.39080    0.76850    0.65830    1.000
    H1156    H        0.37090    0.78400    0.67640    1.000
    H1157    H        0.36290    0.77670    0.64730    1.000
    C1547    C        0.40864    0.81062    0.62785    1.000
    H1158    H        0.41170    0.82930    0.62650    1.000
    H1159    H        0.42490    0.80180    0.63220    1.000
    H1160    H        0.40220    0.80410    0.61120    1.000
    C1548    C        0.42613    0.84121    0.72008    1.000
    H1161    H        0.43570    0.84820    0.73420    1.000
    O259     O        0.47004    0.31616    0.23572    1.000
    O260     O        0.47160    0.29010    0.20240    1.000
    C1549    C        0.46374    0.30753    0.21275    1.000
    C1550    C        0.43604    0.31657    0.20671    1.000
    C1551    C        0.42845    0.31079    0.18467    1.000
    H1162    H        0.44020    0.30390    0.17220    1.000
    C1552    C        0.39905    0.31492    0.17749    1.000
    C1553    C        0.38761    0.30514    0.15004    1.000
    C1554    C        0.36795    0.32821    0.14970    1.000
    C1555    C        0.36704    0.34857    0.16843    1.000
    C1556    C        0.39057    0.33854    0.18519    1.000
    C1557    C        0.39896    0.35604    0.21056    1.000
    H1163    H        0.39050    0.37070    0.21790    1.000
    C1558    C        0.37732    0.28189    0.15866    1.000
    H1164    H        0.39080    0.26850    0.15830    1.000
    H1165    H        0.37090    0.28400    0.17640    1.000
    H1166    H        0.36290    0.27670    0.14730    1.000
    C1559    C        0.40864    0.31062    0.12785    1.000
    H1167    H        0.41170    0.32930    0.12650    1.000
    H1168    H        0.42490    0.30180    0.13220    1.000
    H1169    H        0.40220    0.30410    0.11120    1.000
    C1560    C        0.42613    0.34121    0.22008    1.000
    H1170    H        0.43570    0.34820    0.23420    1.000
    O261     O        0.97004    0.81616    0.23572    1.000
    O262     O        0.97160    0.79010    0.20240    1.000
    C1561    C        0.96374    0.80753    0.21275    1.000
    C1562    C        0.93604    0.81657    0.20671    1.000
    C1563    C        0.92845    0.81079    0.18467    1.000
    H1171    H        0.94020    0.80390    0.17220    1.000
    C1564    C        0.89905    0.81492    0.17749    1.000
    C1565    C        0.88761    0.80514    0.15004    1.000
    C1566    C        0.86795    0.82821    0.14970    1.000
    C1567    C        0.86704    0.84857    0.16843    1.000
    C1568    C        0.89057    0.83854    0.18519    1.000
    C1569    C        0.89896    0.85604    0.21056    1.000
    H1172    H        0.89050    0.87070    0.21790    1.000
    C1570    C        0.87732    0.78189    0.15866    1.000
    H1173    H        0.89080    0.76850    0.15830    1.000
    H1174    H        0.87090    0.78400    0.17640    1.000
    H1175    H        0.86290    0.77670    0.14730    1.000
    C1571    C        0.90864    0.81062    0.12785    1.000
    H1176    H        0.91170    0.82930    0.12650    1.000
    H1177    H        0.92490    0.80180    0.13220    1.000
    H1178    H        0.90220    0.80410    0.11120    1.000
    C1572    C        0.92613    0.84121    0.22008    1.000
    H1179    H        0.93570    0.84820    0.23420    1.000
    O263     O        0.97004    0.31616    0.73572    1.000
    O264     O        0.97160    0.29010    0.70240    1.000
    C1573    C        0.96374    0.30753    0.71275    1.000
    C1574    C        0.93604    0.31657    0.70671    1.000
    C1575    C        0.92845    0.31079    0.68467    1.000
    H1180    H        0.94020    0.30390    0.67220    1.000
    C1576    C        0.89905    0.31492    0.67749    1.000
    C1577    C        0.88761    0.30514    0.65004    1.000
    C1578    C        0.86795    0.32821    0.64970    1.000
    C1579    C        0.86704    0.34857    0.66843    1.000
    C1580    C        0.89057    0.33854    0.68519    1.000
    C1581    C        0.89896    0.35604    0.71056    1.000
    H1181    H        0.89050    0.37070    0.71790    1.000
    C1582    C        0.87732    0.28189    0.65866    1.000
    H1182    H        0.89080    0.26850    0.65830    1.000
    H1183    H        0.87090    0.28400    0.67640    1.000
    H1184    H        0.86290    0.27670    0.64730    1.000
    C1583    C        0.90864    0.31062    0.62785    1.000
    H1185    H        0.91170    0.32930    0.62650    1.000
    H1186    H        0.92490    0.30180    0.63220    1.000
    H1187    H        0.90220    0.30410    0.61120    1.000
    C1584    C        0.92613    0.34121    0.72008    1.000
    H1188    H        0.93570    0.34820    0.73420    1.000
    O265     O        0.52996    0.81616    0.26428    1.000
    O266     O        0.52840    0.79010    0.29760    1.000
    C1585    C        0.53626    0.80753    0.28725    1.000
    C1586    C        0.56396    0.81657    0.29329    1.000
    C1587    C        0.57155    0.81079    0.31533    1.000
    H1189    H        0.55980    0.80390    0.32780    1.000
    C1588    C        0.60095    0.81492    0.32251    1.000
    C1589    C        0.61239    0.80514    0.34996    1.000
    C1590    C        0.63205    0.82821    0.35030    1.000
    C1591    C        0.63296    0.84857    0.33157    1.000
    C1592    C        0.60943    0.83854    0.31481    1.000
    C1593    C        0.60104    0.85604    0.28944    1.000
    H1190    H        0.60950    0.87070    0.28210    1.000
    C1594    C        0.62268    0.78189    0.34134    1.000
    H1191    H        0.60920    0.76850    0.34170    1.000
    H1192    H        0.62910    0.78400    0.32360    1.000
    H1193    H        0.63710    0.77670    0.35270    1.000
    C1595    C        0.59136    0.81062    0.37215    1.000
    H1194    H        0.58830    0.82930    0.37350    1.000
    H1195    H        0.57510    0.80180    0.36780    1.000
    H1196    H        0.59780    0.80410    0.38880    1.000
    C1596    C        0.57387    0.84121    0.27992    1.000
    H1197    H        0.56430    0.84820    0.26580    1.000
    O267     O        0.52996    0.31616    0.76428    1.000
    O268     O        0.52840    0.29010    0.79760    1.000
    C1597    C        0.53626    0.30753    0.78725    1.000
    C1598    C        0.56396    0.31657    0.79329    1.000
    C1599    C        0.57155    0.31079    0.81533    1.000
    H1198    H        0.55980    0.30390    0.82780    1.000
    C1600    C        0.60095    0.31492    0.82251    1.000
    C1601    C        0.61239    0.30514    0.84996    1.000
    C1602    C        0.63205    0.32821    0.85030    1.000
    C1603    C        0.63296    0.34857    0.83157    1.000
    C1604    C        0.60943    0.33854    0.81481    1.000
    C1605    C        0.60104    0.35604    0.78944    1.000
    H1199    H        0.60950    0.37070    0.78210    1.000
    C1606    C        0.62268    0.28189    0.84134    1.000
    H1200    H        0.60920    0.26850    0.84170    1.000
    H1201    H        0.62910    0.28400    0.82360    1.000
    H1202    H        0.63710    0.27670    0.85270    1.000
    C1607    C        0.59136    0.31062    0.87215    1.000
    H1203    H        0.58830    0.32930    0.87350    1.000
    H1204    H        0.57510    0.30180    0.86780    1.000
    H1205    H        0.59780    0.30410    0.88880    1.000
    C1608    C        0.57387    0.34121    0.77992    1.000
    H1206    H        0.56430    0.34820    0.76580    1.000
    O269     O        0.02996    0.81616    0.76428    1.000
    O270     O        0.02840    0.79010    0.79760    1.000
    C1609    C        0.03626    0.80753    0.78725    1.000
    C1610    C        0.06396    0.81657    0.79329    1.000
    C1611    C        0.07155    0.81079    0.81533    1.000
    H1207    H        0.05980    0.80390    0.82780    1.000
    C1612    C        0.10095    0.81492    0.82251    1.000
    C1613    C        0.11239    0.80514    0.84996    1.000
    C1614    C        0.13205    0.82821    0.85030    1.000
    C1615    C        0.13296    0.84857    0.83157    1.000
    C1616    C        0.10943    0.83854    0.81481    1.000
    C1617    C        0.10104    0.85604    0.78944    1.000
    H1208    H        0.10950    0.87070    0.78210    1.000
    C1618    C        0.12268    0.78189    0.84134    1.000
    H1209    H        0.10920    0.76850    0.84170    1.000
    H1210    H        0.12910    0.78400    0.82360    1.000
    H1211    H        0.13710    0.77670    0.85270    1.000
    C1619    C        0.09136    0.81062    0.87215    1.000
    H1212    H        0.08830    0.82930    0.87350    1.000
    H1213    H        0.07510    0.80180    0.86780    1.000
    H1214    H        0.09780    0.80410    0.88880    1.000
    C1620    C        0.07387    0.84121    0.77992    1.000
    H1215    H        0.06430    0.84820    0.76580    1.000
    O271     O        0.02996    0.31616    0.26428    1.000
    O272     O        0.02840    0.29010    0.29760    1.000
    C1621    C        0.03626    0.30753    0.28725    1.000
    C1622    C        0.06396    0.31657    0.29329    1.000
    C1623    C        0.07155    0.31079    0.31533    1.000
    H1216    H        0.05980    0.30390    0.32780    1.000
    C1624    C        0.10095    0.31492    0.32251    1.000
    C1625    C        0.11239    0.30514    0.34996    1.000
    C1626    C        0.13205    0.32821    0.35030    1.000
    C1627    C        0.13296    0.34857    0.33157    1.000
    C1628    C        0.10943    0.33854    0.31481    1.000
    C1629    C        0.10104    0.35604    0.28944    1.000
    H1217    H        0.10950    0.37070    0.28210    1.000
    C1630    C        0.12268    0.28189    0.34134    1.000
    H1218    H        0.10920    0.26850    0.34170    1.000
    H1219    H        0.12910    0.28400    0.32360    1.000
    H1220    H        0.13710    0.27670    0.35270    1.000
    C1631    C        0.09136    0.31062    0.37215    1.000
    H1221    H        0.08830    0.32930    0.37350    1.000
    H1222    H        0.07510    0.30180    0.36780    1.000
    H1223    H        0.09780    0.30410    0.38880    1.000
    C1632    C        0.07387    0.34121    0.27992    1.000
    H1224    H        0.06430    0.34820    0.26580    1.000
    O273     O        0.47004    0.18384    0.26428    1.000
    O274     O        0.47160    0.20990    0.29760    1.000
    C1633    C        0.46374    0.19247    0.28725    1.000
    C1634    C        0.43604    0.18343    0.29329    1.000
    C1635    C        0.42845    0.18921    0.31533    1.000
    H1225    H        0.44020    0.19610    0.32780    1.000
    C1636    C        0.39905    0.18508    0.32251    1.000
    C1637    C        0.38761    0.19486    0.34996    1.000
    C1638    C        0.36795    0.17179    0.35030    1.000
    C1639    C        0.36704    0.15143    0.33157    1.000
    C1640    C        0.39057    0.16146    0.31481    1.000
    C1641    C        0.39896    0.14396    0.28944    1.000
    H1226    H        0.39050    0.12930    0.28210    1.000
    C1642    C        0.37732    0.21811    0.34134    1.000
    H1227    H        0.39080    0.23150    0.34170    1.000
    H1228    H        0.37090    0.21600    0.32360    1.000
    H1229    H        0.36290    0.22330    0.35270    1.000
    C1643    C        0.40864    0.18938    0.37215    1.000
    H1230    H        0.41170    0.17070    0.37350    1.000
    H1231    H        0.42490    0.19820    0.36780    1.000
    H1232    H        0.40220    0.19590    0.38880    1.000
    C1644    C        0.42613    0.15879    0.27992    1.000
    H1233    H        0.43570    0.15180    0.26580    1.000
    O275     O        0.47004    0.68384    0.76428    1.000
    O276     O        0.47160    0.70990    0.79760    1.000
    C1645    C        0.46374    0.69247    0.78725    1.000
    C1646    C        0.43604    0.68343    0.79329    1.000
    C1647    C        0.42845    0.68921    0.81533    1.000
    H1234    H        0.44020    0.69610    0.82780    1.000
    C1648    C        0.39905    0.68508    0.82251    1.000
    C1649    C        0.38761    0.69486    0.84996    1.000
    C1650    C        0.36795    0.67179    0.85030    1.000
    C1651    C        0.36704    0.65143    0.83157    1.000
    C1652    C        0.39057    0.66146    0.81481    1.000
    C1653    C        0.39896    0.64396    0.78944    1.000
    H1235    H        0.39050    0.62930    0.78210    1.000
    C1654    C        0.37732    0.71811    0.84134    1.000
    H1236    H        0.39080    0.73150    0.84170    1.000
    H1237    H        0.37090    0.71600    0.82360    1.000
    H1238    H        0.36290    0.72330    0.85270    1.000
    C1655    C        0.40864    0.68938    0.87215    1.000
    H1239    H        0.41170    0.67070    0.87350    1.000
    H1240    H        0.42490    0.69820    0.86780    1.000
    H1241    H        0.40220    0.69590    0.88880    1.000
    C1656    C        0.42613    0.65879    0.77992    1.000
    H1242    H        0.43570    0.65180    0.76580    1.000
    O277     O        0.97004    0.18384    0.76428    1.000
    O278     O        0.97160    0.20990    0.79760    1.000
    C1657    C        0.96374    0.19247    0.78725    1.000
    C1658    C        0.93604    0.18343    0.79329    1.000
    C1659    C        0.92845    0.18921    0.81533    1.000
    H1243    H        0.94020    0.19610    0.82780    1.000
    C1660    C        0.89905    0.18508    0.82251    1.000
    C1661    C        0.88761    0.19486    0.84996    1.000
    C1662    C        0.86795    0.17179    0.85030    1.000
    C1663    C        0.86704    0.15143    0.83157    1.000
    C1664    C        0.89057    0.16146    0.81481    1.000
    C1665    C        0.89896    0.14396    0.78944    1.000
    H1244    H        0.89050    0.12930    0.78210    1.000
    C1666    C        0.87732    0.21811    0.84134    1.000
    H1245    H        0.89080    0.23150    0.84170    1.000
    H1246    H        0.87090    0.21600    0.82360    1.000
    H1247    H        0.86290    0.22330    0.85270    1.000
    C1667    C        0.90864    0.18938    0.87215    1.000
    H1248    H        0.91170    0.17070    0.87350    1.000
    H1249    H        0.92490    0.19820    0.86780    1.000
    H1250    H        0.90220    0.19590    0.88880    1.000
    C1668    C        0.92613    0.15879    0.77992    1.000
    H1251    H        0.93570    0.15180    0.76580    1.000
    O279     O        0.97004    0.68384    0.26428    1.000
    O280     O        0.97160    0.70990    0.29760    1.000
    C1669    C        0.96374    0.69247    0.28725    1.000
    C1670    C        0.93604    0.68343    0.29329    1.000
    C1671    C        0.92845    0.68921    0.31533    1.000
    H1252    H        0.94020    0.69610    0.32780    1.000
    C1672    C        0.89905    0.68508    0.32251    1.000
    C1673    C        0.88761    0.69486    0.34996    1.000
    C1674    C        0.86795    0.67179    0.35030    1.000
    C1675    C        0.86704    0.65143    0.33157    1.000
    C1676    C        0.89057    0.66146    0.31481    1.000
    C1677    C        0.89896    0.64396    0.28944    1.000
    H1253    H        0.89050    0.62930    0.28210    1.000
    C1678    C        0.87732    0.71811    0.34134    1.000
    H1254    H        0.89080    0.73150    0.34170    1.000
    H1255    H        0.87090    0.71600    0.32360    1.000
    H1256    H        0.86290    0.72330    0.35270    1.000
    C1679    C        0.90864    0.68938    0.37215    1.000
    H1257    H        0.91170    0.67070    0.37350    1.000
    H1258    H        0.92490    0.69820    0.36780    1.000
    H1259    H        0.90220    0.69590    0.38880    1.000
    C1680    C        0.92613    0.65879    0.27992    1.000
    H1260    H        0.93570    0.65180    0.26580    1.000
    O281     O        0.52996    0.18384    0.73572    1.000
    O282     O        0.52840    0.20990    0.70240    1.000
    C1681    C        0.53626    0.19247    0.71275    1.000
    C1682    C        0.56396    0.18343    0.70671    1.000
    C1683    C        0.57155    0.18921    0.68467    1.000
    H1261    H        0.55980    0.19610    0.67220    1.000
    C1684    C        0.60095    0.18508    0.67749    1.000
    C1685    C        0.61239    0.19486    0.65004    1.000
    C1686    C        0.63205    0.17179    0.64970    1.000
    C1687    C        0.63296    0.15143    0.66843    1.000
    C1688    C        0.60943    0.16146    0.68519    1.000
    C1689    C        0.60104    0.14396    0.71056    1.000
    H1262    H        0.60950    0.12930    0.71790    1.000
    C1690    C        0.62268    0.21811    0.65866    1.000
    H1263    H        0.60920    0.23150    0.65830    1.000
    H1264    H        0.62910    0.21600    0.67640    1.000
    H1265    H        0.63710    0.22330    0.64730    1.000
    C1691    C        0.59136    0.18938    0.62785    1.000
    H1266    H        0.58830    0.17070    0.62650    1.000
    H1267    H        0.57510    0.19820    0.63220    1.000
    H1268    H        0.59780    0.19590    0.61120    1.000
    C1692    C        0.57387    0.15879    0.72008    1.000
    H1269    H        0.56430    0.15180    0.73420    1.000
    O283     O        0.52996    0.68384    0.23572    1.000
    O284     O        0.52840    0.70990    0.20240    1.000
    C1693    C        0.53626    0.69247    0.21275    1.000
    C1694    C        0.56396    0.68343    0.20671    1.000
    C1695    C        0.57155    0.68921    0.18467    1.000
    H1270    H        0.55980    0.69610    0.17220    1.000
    C1696    C        0.60095    0.68508    0.17749    1.000
    C1697    C        0.61239    0.69486    0.15004    1.000
    C1698    C        0.63205    0.67179    0.14970    1.000
    C1699    C        0.63296    0.65143    0.16843    1.000
    C1700    C        0.60943    0.66146    0.18519    1.000
    C1701    C        0.60104    0.64396    0.21056    1.000
    H1271    H        0.60950    0.62930    0.21790    1.000
    C1702    C        0.62268    0.71811    0.15866    1.000
    H1272    H        0.60920    0.73150    0.15830    1.000
    H1273    H        0.62910    0.71600    0.17640    1.000
    H1274    H        0.63710    0.72330    0.14730    1.000
    C1703    C        0.59136    0.68938    0.12785    1.000
    H1275    H        0.58830    0.67070    0.12650    1.000
    H1276    H        0.57510    0.69820    0.13220    1.000
    H1277    H        0.59780    0.69590    0.11120    1.000
    C1704    C        0.57387    0.65879    0.22008    1.000
    H1278    H        0.56430    0.65180    0.23420    1.000
    O285     O        0.02996    0.18384    0.23572    1.000
    O286     O        0.02840    0.20990    0.20240    1.000
    C1705    C        0.03626    0.19247    0.21275    1.000
    C1706    C        0.06396    0.18343    0.20671    1.000
    C1707    C        0.07155    0.18921    0.18467    1.000
    H1279    H        0.05980    0.19610    0.17220    1.000
    C1708    C        0.10095    0.18508    0.17749    1.000
    C1709    C        0.11239    0.19486    0.15004    1.000
    C1710    C        0.13205    0.17179    0.14970    1.000
    C1711    C        0.13296    0.15143    0.16843    1.000
    C1712    C        0.10943    0.16146    0.18519    1.000
    C1713    C        0.10104    0.14396    0.21056    1.000
    H1280    H        0.10950    0.12930    0.21790    1.000
    C1714    C        0.12268    0.21811    0.15866    1.000
    H1281    H        0.10920    0.23150    0.15830    1.000
    H1282    H        0.12910    0.21600    0.17640    1.000
    H1283    H        0.13710    0.22330    0.14730    1.000
    C1715    C        0.09136    0.18938    0.12785    1.000
    H1284    H        0.08830    0.17070    0.12650    1.000
    H1285    H        0.07510    0.19820    0.13220    1.000
    H1286    H        0.09780    0.19590    0.11120    1.000
    C1716    C        0.07387    0.15879    0.22008    1.000
    H1287    H        0.06430    0.15180    0.23420    1.000
    O287     O        0.02996    0.68384    0.73572    1.000
    O288     O        0.02840    0.70990    0.70240    1.000
    C1717    C        0.03626    0.69247    0.71275    1.000
    C1718    C        0.06396    0.68343    0.70671    1.000
    C1719    C        0.07155    0.68921    0.68467    1.000
    H1288    H        0.05980    0.69610    0.67220    1.000
    C1720    C        0.10095    0.68508    0.67749    1.000
    C1721    C        0.11239    0.69486    0.65004    1.000
    C1722    C        0.13205    0.67179    0.64970    1.000
    C1723    C        0.13296    0.65143    0.66843    1.000
    C1724    C        0.10943    0.66146    0.68519    1.000
    C1725    C        0.10104    0.64396    0.71056    1.000
    H1289    H        0.10950    0.62930    0.71790    1.000
    C1726    C        0.12268    0.71811    0.65866    1.000
    H1290    H        0.10920    0.73150    0.65830    1.000
    H1291    H        0.12910    0.71600    0.67640    1.000
    H1292    H        0.13710    0.72330    0.64730    1.000
    C1727    C        0.09136    0.68938    0.62785    1.000
    H1293    H        0.08830    0.67070    0.62650    1.000
    H1294    H        0.07510    0.69820    0.63220    1.000
    H1295    H        0.09780    0.69590    0.61120    1.000
    C1728    C        0.07387    0.65879    0.72008    1.000
    H1296    H        0.06430    0.65180    0.73420    1.000
    O289     O        0.97004    0.23572    0.68384    1.000
    O290     O        0.97160    0.20240    0.70990    1.000
    C1729    C        0.96374    0.21275    0.69247    1.000
    C1730    C        0.93604    0.20671    0.68343    1.000
    C1731    C        0.92845    0.18467    0.68921    1.000
    H1297    H        0.94020    0.17220    0.69610    1.000
    C1732    C        0.89905    0.17749    0.68508    1.000
    C1733    C        0.88761    0.15004    0.69486    1.000
    C1734    C        0.86795    0.14970    0.67179    1.000
    C1735    C        0.86704    0.16843    0.65143    1.000
    C1736    C        0.89057    0.18519    0.66146    1.000
    C1737    C        0.89896    0.21056    0.64396    1.000
    H1298    H        0.89050    0.21790    0.62930    1.000
    C1738    C        0.87732    0.15866    0.71811    1.000
    H1299    H        0.89080    0.15830    0.73150    1.000
    H1300    H        0.87090    0.17640    0.71600    1.000
    H1301    H        0.86290    0.14730    0.72330    1.000
    C1739    C        0.90864    0.12785    0.68938    1.000
    H1302    H        0.91170    0.12650    0.67070    1.000
    H1303    H        0.92490    0.13220    0.69820    1.000
    H1304    H        0.90220    0.11120    0.69590    1.000
    C1740    C        0.92613    0.22008    0.65879    1.000
    H1305    H        0.93570    0.23420    0.65180    1.000
    O291     O        0.97004    0.73572    0.18384    1.000
    O292     O        0.97160    0.70240    0.20990    1.000
    C1741    C        0.96374    0.71275    0.19247    1.000
    C1742    C        0.93604    0.70671    0.18343    1.000
    C1743    C        0.92845    0.68467    0.18921    1.000
    H1306    H        0.94020    0.67220    0.19610    1.000
    C1744    C        0.89905    0.67749    0.18508    1.000
    C1745    C        0.88761    0.65004    0.19486    1.000
    C1746    C        0.86795    0.64970    0.17179    1.000
    C1747    C        0.86704    0.66843    0.15143    1.000
    C1748    C        0.89057    0.68519    0.16146    1.000
    C1749    C        0.89896    0.71056    0.14396    1.000
    H1307    H        0.89050    0.71790    0.12930    1.000
    C1750    C        0.87732    0.65866    0.21811    1.000
    H1308    H        0.89080    0.65830    0.23150    1.000
    H1309    H        0.87090    0.67640    0.21600    1.000
    H1310    H        0.86290    0.64730    0.22330    1.000
    C1751    C        0.90864    0.62785    0.18938    1.000
    H1311    H        0.91170    0.62650    0.17070    1.000
    H1312    H        0.92490    0.63220    0.19820    1.000
    H1313    H        0.90220    0.61120    0.19590    1.000
    C1752    C        0.92613    0.72008    0.15879    1.000
    H1314    H        0.93570    0.73420    0.15180    1.000
    O293     O        0.47004    0.23572    0.18384    1.000
    O294     O        0.47160    0.20240    0.20990    1.000
    C1753    C        0.46374    0.21275    0.19247    1.000
    C1754    C        0.43604    0.20671    0.18343    1.000
    C1755    C        0.42845    0.18467    0.18921    1.000
    H1315    H        0.44020    0.17220    0.19610    1.000
    C1756    C        0.39905    0.17749    0.18508    1.000
    C1757    C        0.38761    0.15004    0.19486    1.000
    C1758    C        0.36795    0.14970    0.17179    1.000
    C1759    C        0.36704    0.16843    0.15143    1.000
    C1760    C        0.39057    0.18519    0.16146    1.000
    C1761    C        0.39896    0.21056    0.14396    1.000
    H1316    H        0.39050    0.21790    0.12930    1.000
    C1762    C        0.37732    0.15866    0.21811    1.000
    H1317    H        0.39080    0.15830    0.23150    1.000
    H1318    H        0.37090    0.17640    0.21600    1.000
    H1319    H        0.36290    0.14730    0.22330    1.000
    C1763    C        0.40864    0.12785    0.18938    1.000
    H1320    H        0.41170    0.12650    0.17070    1.000
    H1321    H        0.42490    0.13220    0.19820    1.000
    H1322    H        0.40220    0.11120    0.19590    1.000
    C1764    C        0.42613    0.22008    0.15879    1.000
    H1323    H        0.43570    0.23420    0.15180    1.000
    O295     O        0.47004    0.73572    0.68384    1.000
    O296     O        0.47160    0.70240    0.70990    1.000
    C1765    C        0.46374    0.71275    0.69247    1.000
    C1766    C        0.43604    0.70671    0.68343    1.000
    C1767    C        0.42845    0.68467    0.68921    1.000
    H1324    H        0.44020    0.67220    0.69610    1.000
    C1768    C        0.39905    0.67749    0.68508    1.000
    C1769    C        0.38761    0.65004    0.69486    1.000
    C1770    C        0.36795    0.64970    0.67179    1.000
    C1771    C        0.36704    0.66843    0.65143    1.000
    C1772    C        0.39057    0.68519    0.66146    1.000
    C1773    C        0.39896    0.71056    0.64396    1.000
    H1325    H        0.39050    0.71790    0.62930    1.000
    C1774    C        0.37732    0.65866    0.71811    1.000
    H1326    H        0.39080    0.65830    0.73150    1.000
    H1327    H        0.37090    0.67640    0.71600    1.000
    H1328    H        0.36290    0.64730    0.72330    1.000
    C1775    C        0.40864    0.62785    0.68938    1.000
    H1329    H        0.41170    0.62650    0.67070    1.000
    H1330    H        0.42490    0.63220    0.69820    1.000
    H1331    H        0.40220    0.61120    0.69590    1.000
    C1776    C        0.42613    0.72008    0.65879    1.000
    H1332    H        0.43570    0.73420    0.65180    1.000
    O297     O        0.02996    0.76428    0.68384    1.000
    O298     O        0.02840    0.79760    0.70990    1.000
    C1777    C        0.03626    0.78725    0.69247    1.000
    C1778    C        0.06396    0.79329    0.68343    1.000
    C1779    C        0.07155    0.81533    0.68921    1.000
    H1333    H        0.05980    0.82780    0.69610    1.000
    C1780    C        0.10095    0.82251    0.68508    1.000
    C1781    C        0.11239    0.84996    0.69486    1.000
    C1782    C        0.13205    0.85030    0.67179    1.000
    C1783    C        0.13296    0.83157    0.65143    1.000
    C1784    C        0.10943    0.81481    0.66146    1.000
    C1785    C        0.10104    0.78944    0.64396    1.000
    H1334    H        0.10950    0.78210    0.62930    1.000
    C1786    C        0.12268    0.84134    0.71811    1.000
    H1335    H        0.10920    0.84170    0.73150    1.000
    H1336    H        0.12910    0.82360    0.71600    1.000
    H1337    H        0.13710    0.85270    0.72330    1.000
    C1787    C        0.09136    0.87215    0.68938    1.000
    H1338    H        0.08830    0.87350    0.67070    1.000
    H1339    H        0.07510    0.86780    0.69820    1.000
    H1340    H        0.09780    0.88880    0.69590    1.000
    C1788    C        0.07387    0.77992    0.65879    1.000
    H1341    H        0.06430    0.76580    0.65180    1.000
    O299     O        0.02996    0.26428    0.18384    1.000
    O300     O        0.02840    0.29760    0.20990    1.000
    C1789    C        0.03626    0.28725    0.19247    1.000
    C1790    C        0.06396    0.29329    0.18343    1.000
    C1791    C        0.07155    0.31533    0.18921    1.000
    H1342    H        0.05980    0.32780    0.19610    1.000
    C1792    C        0.10095    0.32251    0.18508    1.000
    C1793    C        0.11239    0.34996    0.19486    1.000
    C1794    C        0.13205    0.35030    0.17179    1.000
    C1795    C        0.13296    0.33157    0.15143    1.000
    C1796    C        0.10943    0.31481    0.16146    1.000
    C1797    C        0.10104    0.28944    0.14396    1.000
    H1343    H        0.10950    0.28210    0.12930    1.000
    C1798    C        0.12268    0.34134    0.21811    1.000
    H1344    H        0.10920    0.34170    0.23150    1.000
    H1345    H        0.12910    0.32360    0.21600    1.000
    H1346    H        0.13710    0.35270    0.22330    1.000
    C1799    C        0.09136    0.37215    0.18938    1.000
    H1347    H        0.08830    0.37350    0.17070    1.000
    H1348    H        0.07510    0.36780    0.19820    1.000
    H1349    H        0.09780    0.38880    0.19590    1.000
    C1800    C        0.07387    0.27992    0.15879    1.000
    H1350    H        0.06430    0.26580    0.15180    1.000
    O301     O        0.52996    0.76428    0.18384    1.000
    O302     O        0.52840    0.79760    0.20990    1.000
    C1801    C        0.53626    0.78725    0.19247    1.000
    C1802    C        0.56396    0.79329    0.18343    1.000
    C1803    C        0.57155    0.81533    0.18921    1.000
    H1351    H        0.55980    0.82780    0.19610    1.000
    C1804    C        0.60095    0.82251    0.18508    1.000
    C1805    C        0.61239    0.84996    0.19486    1.000
    C1806    C        0.63205    0.85030    0.17179    1.000
    C1807    C        0.63296    0.83157    0.15143    1.000
    C1808    C        0.60943    0.81481    0.16146    1.000
    C1809    C        0.60104    0.78944    0.14396    1.000
    H1352    H        0.60950    0.78210    0.12930    1.000
    C1810    C        0.62268    0.84134    0.21811    1.000
    H1353    H        0.60920    0.84170    0.23150    1.000
    H1354    H        0.62910    0.82360    0.21600    1.000
    H1355    H        0.63710    0.85270    0.22330    1.000
    C1811    C        0.59136    0.87215    0.18938    1.000
    H1356    H        0.58830    0.87350    0.17070    1.000
    H1357    H        0.57510    0.86780    0.19820    1.000
    H1358    H        0.59780    0.88880    0.19590    1.000
    C1812    C        0.57387    0.77992    0.15879    1.000
    H1359    H        0.56430    0.76580    0.15180    1.000
    O303     O        0.52996    0.26428    0.68384    1.000
    O304     O        0.52840    0.29760    0.70990    1.000
    C1813    C        0.53626    0.28725    0.69247    1.000
    C1814    C        0.56396    0.29329    0.68343    1.000
    C1815    C        0.57155    0.31533    0.68921    1.000
    H1360    H        0.55980    0.32780    0.69610    1.000
    C1816    C        0.60095    0.32251    0.68508    1.000
    C1817    C        0.61239    0.34996    0.69486    1.000
    C1818    C        0.63205    0.35030    0.67179    1.000
    C1819    C        0.63296    0.33157    0.65143    1.000
    C1820    C        0.60943    0.31481    0.66146    1.000
    C1821    C        0.60104    0.28944    0.64396    1.000
    H1361    H        0.60950    0.28210    0.62930    1.000
    C1822    C        0.62268    0.34134    0.71811    1.000
    H1362    H        0.60920    0.34170    0.73150    1.000
    H1363    H        0.62910    0.32360    0.71600    1.000
    H1364    H        0.63710    0.35270    0.72330    1.000
    C1823    C        0.59136    0.37215    0.68938    1.000
    H1365    H        0.58830    0.37350    0.67070    1.000
    H1366    H        0.57510    0.36780    0.69820    1.000
    H1367    H        0.59780    0.38880    0.69590    1.000
    C1824    C        0.57387    0.27992    0.65879    1.000
    H1368    H        0.56430    0.26580    0.65180    1.000
    O305     O        0.97004    0.76428    0.31616    1.000
    O306     O        0.97160    0.79760    0.29010    1.000
    C1825    C        0.96374    0.78725    0.30753    1.000
    C1826    C        0.93604    0.79329    0.31657    1.000
    C1827    C        0.92845    0.81533    0.31079    1.000
    H1369    H        0.94020    0.82780    0.30390    1.000
    C1828    C        0.89905    0.82251    0.31492    1.000
    C1829    C        0.88761    0.84996    0.30514    1.000
    C1830    C        0.86795    0.85030    0.32821    1.000
    C1831    C        0.86704    0.83157    0.34857    1.000
    C1832    C        0.89057    0.81481    0.33854    1.000
    C1833    C        0.89896    0.78944    0.35604    1.000
    H1370    H        0.89050    0.78210    0.37070    1.000
    C1834    C        0.87732    0.84134    0.28189    1.000
    H1371    H        0.89080    0.84170    0.26850    1.000
    H1372    H        0.87090    0.82360    0.28400    1.000
    H1373    H        0.86290    0.85270    0.27670    1.000
    C1835    C        0.90864    0.87215    0.31062    1.000
    H1374    H        0.91170    0.87350    0.32930    1.000
    H1375    H        0.92490    0.86780    0.30180    1.000
    H1376    H        0.90220    0.88880    0.30410    1.000
    C1836    C        0.92613    0.77992    0.34121    1.000
    H1377    H        0.93570    0.76580    0.34820    1.000
    O307     O        0.97004    0.26428    0.81616    1.000
    O308     O        0.97160    0.29760    0.79010    1.000
    C1837    C        0.96374    0.28725    0.80753    1.000
    C1838    C        0.93604    0.29329    0.81657    1.000
    C1839    C        0.92845    0.31533    0.81079    1.000
    H1378    H        0.94020    0.32780    0.80390    1.000
    C1840    C        0.89905    0.32251    0.81492    1.000
    C1841    C        0.88761    0.34996    0.80514    1.000
    C1842    C        0.86795    0.35030    0.82821    1.000
    C1843    C        0.86704    0.33157    0.84857    1.000
    C1844    C        0.89057    0.31481    0.83854    1.000
    C1845    C        0.89896    0.28944    0.85604    1.000
    H1379    H        0.89050    0.28210    0.87070    1.000
    C1846    C        0.87732    0.34134    0.78189    1.000
    H1380    H        0.89080    0.34170    0.76850    1.000
    H1381    H        0.87090    0.32360    0.78400    1.000
    H1382    H        0.86290    0.35270    0.77670    1.000
    C1847    C        0.90864    0.37215    0.81062    1.000
    H1383    H        0.91170    0.37350    0.82930    1.000
    H1384    H        0.92490    0.36780    0.80180    1.000
    H1385    H        0.90220    0.38880    0.80410    1.000
    C1848    C        0.92613    0.27992    0.84121    1.000
    H1386    H        0.93570    0.26580    0.84820    1.000
    O309     O        0.47004    0.76428    0.81616    1.000
    O310     O        0.47160    0.79760    0.79010    1.000
    C1849    C        0.46374    0.78725    0.80753    1.000
    C1850    C        0.43604    0.79329    0.81657    1.000
    C1851    C        0.42845    0.81533    0.81079    1.000
    H1387    H        0.44020    0.82780    0.80390    1.000
    C1852    C        0.39905    0.82251    0.81492    1.000
    C1853    C        0.38761    0.84996    0.80514    1.000
    C1854    C        0.36795    0.85030    0.82821    1.000
    C1855    C        0.36704    0.83157    0.84857    1.000
    C1856    C        0.39057    0.81481    0.83854    1.000
    C1857    C        0.39896    0.78944    0.85604    1.000
    H1388    H        0.39050    0.78210    0.87070    1.000
    C1858    C        0.37732    0.84134    0.78189    1.000
    H1389    H        0.39080    0.84170    0.76850    1.000
    H1390    H        0.37090    0.82360    0.78400    1.000
    H1391    H        0.36290    0.85270    0.77670    1.000
    C1859    C        0.40864    0.87215    0.81062    1.000
    H1392    H        0.41170    0.87350    0.82930    1.000
    H1393    H        0.42490    0.86780    0.80180    1.000
    H1394    H        0.40220    0.88880    0.80410    1.000
    C1860    C        0.42613    0.77992    0.84121    1.000
    H1395    H        0.43570    0.76580    0.84820    1.000
    O311     O        0.47004    0.26428    0.31616    1.000
    O312     O        0.47160    0.29760    0.29010    1.000
    C1861    C        0.46374    0.28725    0.30753    1.000
    C1862    C        0.43604    0.29329    0.31657    1.000
    C1863    C        0.42845    0.31533    0.31079    1.000
    H1396    H        0.44020    0.32780    0.30390    1.000
    C1864    C        0.39905    0.32251    0.31492    1.000
    C1865    C        0.38761    0.34996    0.30514    1.000
    C1866    C        0.36795    0.35030    0.32821    1.000
    C1867    C        0.36704    0.33157    0.34857    1.000
    C1868    C        0.39057    0.31481    0.33854    1.000
    C1869    C        0.39896    0.28944    0.35604    1.000
    H1397    H        0.39050    0.28210    0.37070    1.000
    C1870    C        0.37732    0.34134    0.28189    1.000
    H1398    H        0.39080    0.34170    0.26850    1.000
    H1399    H        0.37090    0.32360    0.28400    1.000
    H1400    H        0.36290    0.35270    0.27670    1.000
    C1871    C        0.40864    0.37215    0.31062    1.000
    H1401    H        0.41170    0.37350    0.32930    1.000
    H1402    H        0.42490    0.36780    0.30180    1.000
    H1403    H        0.40220    0.38880    0.30410    1.000
    C1872    C        0.42613    0.27992    0.34121    1.000
    H1404    H        0.43570    0.26580    0.34820    1.000
    O313     O        0.02996    0.23572    0.31616    1.000
    O314     O        0.02840    0.20240    0.29010    1.000
    C1873    C        0.03626    0.21275    0.30753    1.000
    C1874    C        0.06396    0.20671    0.31657    1.000
    C1875    C        0.07155    0.18467    0.31079    1.000
    H1405    H        0.05980    0.17220    0.30390    1.000
    C1876    C        0.10095    0.17749    0.31492    1.000
    C1877    C        0.11239    0.15004    0.30514    1.000
    C1878    C        0.13205    0.14970    0.32821    1.000
    C1879    C        0.13296    0.16843    0.34857    1.000
    C1880    C        0.10943    0.18519    0.33854    1.000
    C1881    C        0.10104    0.21056    0.35604    1.000
    H1406    H        0.10950    0.21790    0.37070    1.000
    C1882    C        0.12268    0.15866    0.28189    1.000
    H1407    H        0.10920    0.15830    0.26850    1.000
    H1408    H        0.12910    0.17640    0.28400    1.000
    H1409    H        0.13710    0.14730    0.27670    1.000
    C1883    C        0.09136    0.12785    0.31062    1.000
    H1410    H        0.08830    0.12650    0.32930    1.000
    H1411    H        0.07510    0.13220    0.30180    1.000
    H1412    H        0.09780    0.11120    0.30410    1.000
    C1884    C        0.07387    0.22008    0.34121    1.000
    H1413    H        0.06430    0.23420    0.34820    1.000
    O315     O        0.02996    0.73572    0.81616    1.000
    O316     O        0.02840    0.70240    0.79010    1.000
    C1885    C        0.03626    0.71275    0.80753    1.000
    C1886    C        0.06396    0.70671    0.81657    1.000
    C1887    C        0.07155    0.68467    0.81079    1.000
    H1414    H        0.05980    0.67220    0.80390    1.000
    C1888    C        0.10095    0.67749    0.81492    1.000
    C1889    C        0.11239    0.65004    0.80514    1.000
    C1890    C        0.13205    0.64970    0.82821    1.000
    C1891    C        0.13296    0.66843    0.84857    1.000
    C1892    C        0.10943    0.68519    0.83854    1.000
    C1893    C        0.10104    0.71056    0.85604    1.000
    H1415    H        0.10950    0.71790    0.87070    1.000
    C1894    C        0.12268    0.65866    0.78189    1.000
    H1416    H        0.10920    0.65830    0.76850    1.000
    H1417    H        0.12910    0.67640    0.78400    1.000
    H1418    H        0.13710    0.64730    0.77670    1.000
    C1895    C        0.09136    0.62785    0.81062    1.000
    H1419    H        0.08830    0.62650    0.82930    1.000
    H1420    H        0.07510    0.63220    0.80180    1.000
    H1421    H        0.09780    0.61120    0.80410    1.000
    C1896    C        0.07387    0.72008    0.84121    1.000
    H1422    H        0.06430    0.73420    0.84820    1.000
    O317     O        0.52996    0.23572    0.81616    1.000
    O318     O        0.52840    0.20240    0.79010    1.000
    C1897    C        0.53626    0.21275    0.80753    1.000
    C1898    C        0.56396    0.20671    0.81657    1.000
    C1899    C        0.57155    0.18467    0.81079    1.000
    H1423    H        0.55980    0.17220    0.80390    1.000
    C1900    C        0.60095    0.17749    0.81492    1.000
    C1901    C        0.61239    0.15004    0.80514    1.000
    C1902    C        0.63205    0.14970    0.82821    1.000
    C1903    C        0.63296    0.16843    0.84857    1.000
    C1904    C        0.60943    0.18519    0.83854    1.000
    C1905    C        0.60104    0.21056    0.85604    1.000
    H1424    H        0.60950    0.21790    0.87070    1.000
    C1906    C        0.62268    0.15866    0.78189    1.000
    H1425    H        0.60920    0.15830    0.76850    1.000
    H1426    H        0.62910    0.17640    0.78400    1.000
    H1427    H        0.63710    0.14730    0.77670    1.000
    C1907    C        0.59136    0.12785    0.81062    1.000
    H1428    H        0.58830    0.12650    0.82930    1.000
    H1429    H        0.57510    0.13220    0.80180    1.000
    H1430    H        0.59780    0.11120    0.80410    1.000
    C1908    C        0.57387    0.22008    0.84121    1.000
    H1431    H        0.56430    0.23420    0.84820    1.000
    O319     O        0.52996    0.73572    0.31616    1.000
    O320     O        0.52840    0.70240    0.29010    1.000
    C1909    C        0.53626    0.71275    0.30753    1.000
    C1910    C        0.56396    0.70671    0.31657    1.000
    C1911    C        0.57155    0.68467    0.31079    1.000
    H1432    H        0.55980    0.67220    0.30390    1.000
    C1912    C        0.60095    0.67749    0.31492    1.000
    C1913    C        0.61239    0.65004    0.30514    1.000
    C1914    C        0.63205    0.64970    0.32821    1.000
    C1915    C        0.63296    0.66843    0.34857    1.000
    C1916    C        0.60943    0.68519    0.33854    1.000
    C1917    C        0.60104    0.71056    0.35604    1.000
    H1433    H        0.60950    0.71790    0.37070    1.000
    C1918    C        0.62268    0.65866    0.28189    1.000
    H1434    H        0.60920    0.65830    0.26850    1.000
    H1435    H        0.62910    0.67640    0.28400    1.000
    H1436    H        0.63710    0.64730    0.27670    1.000
    C1919    C        0.59136    0.62785    0.31062    1.000
    H1437    H        0.58830    0.62650    0.32930    1.000
    H1438    H        0.57510    0.63220    0.30180    1.000
    H1439    H        0.59780    0.61120    0.30410    1.000
    C1920    C        0.57387    0.72008    0.34121    1.000
    H1440    H        0.56430    0.73420    0.34820    1.000
    O321     O        0.23572    0.31616    0.02996    1.000
    O322     O        0.20240    0.29010    0.02840    1.000
    C1921    C        0.21275    0.30753    0.03626    1.000
    C1922    C        0.20671    0.31657    0.06396    1.000
    C1923    C        0.18467    0.31079    0.07155    1.000
    H1441    H        0.17220    0.30390    0.05980    1.000
    C1924    C        0.17749    0.31492    0.10095    1.000
    C1925    C        0.15004    0.30514    0.11239    1.000
    C1926    C        0.14970    0.32821    0.13205    1.000
    C1927    C        0.16843    0.34857    0.13296    1.000
    C1928    C        0.18519    0.33854    0.10943    1.000
    C1929    C        0.21056    0.35604    0.10104    1.000
    H1442    H        0.21790    0.37070    0.10950    1.000
    C1930    C        0.15866    0.28189    0.12268    1.000
    H1443    H        0.15830    0.26850    0.10920    1.000
    H1444    H        0.17640    0.28400    0.12910    1.000
    H1445    H        0.14730    0.27670    0.13710    1.000
    C1931    C        0.12785    0.31062    0.09136    1.000
    H1446    H        0.12650    0.32930    0.08830    1.000
    H1447    H        0.13220    0.30180    0.07510    1.000
    H1448    H        0.11120    0.30410    0.09780    1.000
    C1932    C        0.22008    0.34121    0.07387    1.000
    H1449    H        0.23420    0.34820    0.06430    1.000
    O323     O        0.23572    0.81616    0.52996    1.000
    O324     O        0.20240    0.79010    0.52840    1.000
    C1933    C        0.21275    0.80753    0.53626    1.000
    C1934    C        0.20671    0.81657    0.56396    1.000
    C1935    C        0.18467    0.81079    0.57155    1.000
    H1450    H        0.17220    0.80390    0.55980    1.000
    C1936    C        0.17749    0.81492    0.60095    1.000
    C1937    C        0.15004    0.80514    0.61239    1.000
    C1938    C        0.14970    0.82821    0.63205    1.000
    C1939    C        0.16843    0.84857    0.63296    1.000
    C1940    C        0.18519    0.83854    0.60943    1.000
    C1941    C        0.21056    0.85604    0.60104    1.000
    H1451    H        0.21790    0.87070    0.60950    1.000
    C1942    C        0.15866    0.78189    0.62268    1.000
    H1452    H        0.15830    0.76850    0.60920    1.000
    H1453    H        0.17640    0.78400    0.62910    1.000
    H1454    H        0.14730    0.77670    0.63710    1.000
    C1943    C        0.12785    0.81062    0.59136    1.000
    H1455    H        0.12650    0.82930    0.58830    1.000
    H1456    H        0.13220    0.80180    0.57510    1.000
    H1457    H        0.11120    0.80410    0.59780    1.000
    C1944    C        0.22008    0.84121    0.57387    1.000
    H1458    H        0.23420    0.84820    0.56430    1.000
    O325     O        0.73572    0.31616    0.52996    1.000
    O326     O        0.70240    0.29010    0.52840    1.000
    C1945    C        0.71275    0.30753    0.53626    1.000
    C1946    C        0.70671    0.31657    0.56396    1.000
    C1947    C        0.68467    0.31079    0.57155    1.000
    H1459    H        0.67220    0.30390    0.55980    1.000
    C1948    C        0.67749    0.31492    0.60095    1.000
    C1949    C        0.65004    0.30514    0.61239    1.000
    C1950    C        0.64970    0.32821    0.63205    1.000
    C1951    C        0.66843    0.34857    0.63296    1.000
    C1952    C        0.68519    0.33854    0.60943    1.000
    C1953    C        0.71056    0.35604    0.60104    1.000
    H1460    H        0.71790    0.37070    0.60950    1.000
    C1954    C        0.65866    0.28189    0.62268    1.000
    H1461    H        0.65830    0.26850    0.60920    1.000
    H1462    H        0.67640    0.28400    0.62910    1.000
    H1463    H        0.64730    0.27670    0.63710    1.000
    C1955    C        0.62785    0.31062    0.59136    1.000
    H1464    H        0.62650    0.32930    0.58830    1.000
    H1465    H        0.63220    0.30180    0.57510    1.000
    H1466    H        0.61120    0.30410    0.59780    1.000
    C1956    C        0.72008    0.34121    0.57387    1.000
    H1467    H        0.73420    0.34820    0.56430    1.000
    O327     O        0.73572    0.81616    0.02996    1.000
    O328     O        0.70240    0.79010    0.02840    1.000
    C1957    C        0.71275    0.80753    0.03626    1.000
    C1958    C        0.70671    0.81657    0.06396    1.000
    C1959    C        0.68467    0.81079    0.07155    1.000
    H1468    H        0.67220    0.80390    0.05980    1.000
    C1960    C        0.67749    0.81492    0.10095    1.000
    C1961    C        0.65004    0.80514    0.11239    1.000
    C1962    C        0.64970    0.82821    0.13205    1.000
    C1963    C        0.66843    0.84857    0.13296    1.000
    C1964    C        0.68519    0.83854    0.10943    1.000
    C1965    C        0.71056    0.85604    0.10104    1.000
    H1469    H        0.71790    0.87070    0.10950    1.000
    C1966    C        0.65866    0.78189    0.12268    1.000
    H1470    H        0.65830    0.76850    0.10920    1.000
    H1471    H        0.67640    0.78400    0.12910    1.000
    H1472    H        0.64730    0.77670    0.13710    1.000
    C1967    C        0.62785    0.81062    0.09136    1.000
    H1473    H        0.62650    0.82930    0.08830    1.000
    H1474    H        0.63220    0.80180    0.07510    1.000
    H1475    H        0.61120    0.80410    0.09780    1.000
    C1968    C        0.72008    0.84121    0.07387    1.000
    H1476    H        0.73420    0.84820    0.06430    1.000
    O329     O        0.76428    0.31616    0.97004    1.000
    O330     O        0.79760    0.29010    0.97160    1.000
    C1969    C        0.78725    0.30753    0.96374    1.000
    C1970    C        0.79329    0.31657    0.93604    1.000
    C1971    C        0.81533    0.31079    0.92845    1.000
    H1477    H        0.82780    0.30390    0.94020    1.000
    C1972    C        0.82251    0.31492    0.89905    1.000
    C1973    C        0.84996    0.30514    0.88761    1.000
    C1974    C        0.85030    0.32821    0.86795    1.000
    C1975    C        0.83157    0.34857    0.86704    1.000
    C1976    C        0.81481    0.33854    0.89057    1.000
    C1977    C        0.78944    0.35604    0.89896    1.000
    H1478    H        0.78210    0.37070    0.89050    1.000
    C1978    C        0.84134    0.28189    0.87732    1.000
    H1479    H        0.84170    0.26850    0.89080    1.000
    H1480    H        0.82360    0.28400    0.87090    1.000
    H1481    H        0.85270    0.27670    0.86290    1.000
    C1979    C        0.87215    0.31062    0.90864    1.000
    H1482    H        0.87350    0.32930    0.91170    1.000
    H1483    H        0.86780    0.30180    0.92490    1.000
    H1484    H        0.88880    0.30410    0.90220    1.000
    C1980    C        0.77992    0.34121    0.92613    1.000
    H1485    H        0.76580    0.34820    0.93570    1.000
    O331     O        0.76428    0.81616    0.47004    1.000
    O332     O        0.79760    0.79010    0.47160    1.000
    C1981    C        0.78725    0.80753    0.46374    1.000
    C1982    C        0.79329    0.81657    0.43604    1.000
    C1983    C        0.81533    0.81079    0.42845    1.000
    H1486    H        0.82780    0.80390    0.44020    1.000
    C1984    C        0.82251    0.81492    0.39905    1.000
    C1985    C        0.84996    0.80514    0.38761    1.000
    C1986    C        0.85030    0.82821    0.36795    1.000
    C1987    C        0.83157    0.84857    0.36704    1.000
    C1988    C        0.81481    0.83854    0.39057    1.000
    C1989    C        0.78944    0.85604    0.39896    1.000
    H1487    H        0.78210    0.87070    0.39050    1.000
    C1990    C        0.84134    0.78189    0.37732    1.000
    H1488    H        0.84170    0.76850    0.39080    1.000
    H1489    H        0.82360    0.78400    0.37090    1.000
    H1490    H        0.85270    0.77670    0.36290    1.000
    C1991    C        0.87215    0.81062    0.40864    1.000
    H1491    H        0.87350    0.82930    0.41170    1.000
    H1492    H        0.86780    0.80180    0.42490    1.000
    H1493    H        0.88880    0.80410    0.40220    1.000
    C1992    C        0.77992    0.84121    0.42613    1.000
    H1494    H        0.76580    0.84820    0.43570    1.000
    O333     O        0.26428    0.31616    0.47004    1.000
    O334     O        0.29760    0.29010    0.47160    1.000
    C1993    C        0.28725    0.30753    0.46374    1.000
    C1994    C        0.29329    0.31657    0.43604    1.000
    C1995    C        0.31533    0.31079    0.42845    1.000
    H1495    H        0.32780    0.30390    0.44020    1.000
    C1996    C        0.32251    0.31492    0.39905    1.000
    C1997    C        0.34996    0.30514    0.38761    1.000
    C1998    C        0.35030    0.32821    0.36795    1.000
    C1999    C        0.33157    0.34857    0.36704    1.000
    C2000    C        0.31481    0.33854    0.39057    1.000
    C2001    C        0.28944    0.35604    0.39896    1.000
    H1496    H        0.28210    0.37070    0.39050    1.000
    C2002    C        0.34134    0.28189    0.37732    1.000
    H1497    H        0.34170    0.26850    0.39080    1.000
    H1498    H        0.32360    0.28400    0.37090    1.000
    H1499    H        0.35270    0.27670    0.36290    1.000
    C2003    C        0.37215    0.31062    0.40864    1.000
    H1500    H        0.37350    0.32930    0.41170    1.000
    H1501    H        0.36780    0.30180    0.42490    1.000
    H1502    H        0.38880    0.30410    0.40220    1.000
    C2004    C        0.27992    0.34121    0.42613    1.000
    H1503    H        0.26580    0.34820    0.43570    1.000
    O335     O        0.26428    0.81616    0.97004    1.000
    O336     O        0.29760    0.79010    0.97160    1.000
    C2005    C        0.28725    0.80753    0.96374    1.000
    C2006    C        0.29329    0.81657    0.93604    1.000
    C2007    C        0.31533    0.81079    0.92845    1.000
    H1504    H        0.32780    0.80390    0.94020    1.000
    C2008    C        0.32251    0.81492    0.89905    1.000
    C2009    C        0.34996    0.80514    0.88761    1.000
    C2010    C        0.35030    0.82821    0.86795    1.000
    C2011    C        0.33157    0.84857    0.86704    1.000
    C2012    C        0.31481    0.83854    0.89057    1.000
    C2013    C        0.28944    0.85604    0.89896    1.000
    H1505    H        0.28210    0.87070    0.89050    1.000
    C2014    C        0.34134    0.78189    0.87732    1.000
    H1506    H        0.34170    0.76850    0.89080    1.000
    H1507    H        0.32360    0.78400    0.87090    1.000
    H1508    H        0.35270    0.77670    0.86290    1.000
    C2015    C        0.37215    0.81062    0.90864    1.000
    H1509    H        0.37350    0.82930    0.91170    1.000
    H1510    H        0.36780    0.80180    0.92490    1.000
    H1511    H        0.38880    0.80410    0.90220    1.000
    C2016    C        0.27992    0.84121    0.92613    1.000
    H1512    H        0.26580    0.84820    0.93570    1.000
    O337     O        0.76428    0.68384    0.02996    1.000
    O338     O        0.79760    0.70990    0.02840    1.000
    C2017    C        0.78725    0.69247    0.03626    1.000
    C2018    C        0.79329    0.68343    0.06396    1.000
    C2019    C        0.81533    0.68921    0.07155    1.000
    H1513    H        0.82780    0.69610    0.05980    1.000
    C2020    C        0.82251    0.68508    0.10095    1.000
    C2021    C        0.84996    0.69486    0.11239    1.000
    C2022    C        0.85030    0.67179    0.13205    1.000
    C2023    C        0.83157    0.65143    0.13296    1.000
    C2024    C        0.81481    0.66146    0.10943    1.000
    C2025    C        0.78944    0.64396    0.10104    1.000
    H1514    H        0.78210    0.62930    0.10950    1.000
    C2026    C        0.84134    0.71811    0.12268    1.000
    H1515    H        0.84170    0.73150    0.10920    1.000
    H1516    H        0.82360    0.71600    0.12910    1.000
    H1517    H        0.85270    0.72330    0.13710    1.000
    C2027    C        0.87215    0.68938    0.09136    1.000
    H1518    H        0.87350    0.67070    0.08830    1.000
    H1519    H        0.86780    0.69820    0.07510    1.000
    H1520    H        0.88880    0.69590    0.09780    1.000
    C2028    C        0.77992    0.65879    0.07387    1.000
    H1521    H        0.76580    0.65180    0.06430    1.000
    O339     O        0.76428    0.18384    0.52996    1.000
    O340     O        0.79760    0.20990    0.52840    1.000
    C2029    C        0.78725    0.19247    0.53626    1.000
    C2030    C        0.79329    0.18343    0.56396    1.000
    C2031    C        0.81533    0.18921    0.57155    1.000
    H1522    H        0.82780    0.19610    0.55980    1.000
    C2032    C        0.82251    0.18508    0.60095    1.000
    C2033    C        0.84996    0.19486    0.61239    1.000
    C2034    C        0.85030    0.17179    0.63205    1.000
    C2035    C        0.83157    0.15143    0.63296    1.000
    C2036    C        0.81481    0.16146    0.60943    1.000
    C2037    C        0.78944    0.14396    0.60104    1.000
    H1523    H        0.78210    0.12930    0.60950    1.000
    C2038    C        0.84134    0.21811    0.62268    1.000
    H1524    H        0.84170    0.23150    0.60920    1.000
    H1525    H        0.82360    0.21600    0.62910    1.000
    H1526    H        0.85270    0.22330    0.63710    1.000
    C2039    C        0.87215    0.18938    0.59136    1.000
    H1527    H        0.87350    0.17070    0.58830    1.000
    H1528    H        0.86780    0.19820    0.57510    1.000
    H1529    H        0.88880    0.19590    0.59780    1.000
    C2040    C        0.77992    0.15879    0.57387    1.000
    H1530    H        0.76580    0.15180    0.56430    1.000
    O341     O        0.26428    0.68384    0.52996    1.000
    O342     O        0.29760    0.70990    0.52840    1.000
    C2041    C        0.28725    0.69247    0.53626    1.000
    C2042    C        0.29329    0.68343    0.56396    1.000
    C2043    C        0.31533    0.68921    0.57155    1.000
    H1531    H        0.32780    0.69610    0.55980    1.000
    C2044    C        0.32251    0.68508    0.60095    1.000
    C2045    C        0.34996    0.69486    0.61239    1.000
    C2046    C        0.35030    0.67179    0.63205    1.000
    C2047    C        0.33157    0.65143    0.63296    1.000
    C2048    C        0.31481    0.66146    0.60943    1.000
    C2049    C        0.28944    0.64396    0.60104    1.000
    H1532    H        0.28210    0.62930    0.60950    1.000
    C2050    C        0.34134    0.71811    0.62268    1.000
    H1533    H        0.34170    0.73150    0.60920    1.000
    H1534    H        0.32360    0.71600    0.62910    1.000
    H1535    H        0.35270    0.72330    0.63710    1.000
    C2051    C        0.37215    0.68938    0.59136    1.000
    H1536    H        0.37350    0.67070    0.58830    1.000
    H1537    H        0.36780    0.69820    0.57510    1.000
    H1538    H        0.38880    0.69590    0.59780    1.000
    C2052    C        0.27992    0.65879    0.57387    1.000
    H1539    H        0.26580    0.65180    0.56430    1.000
    O343     O        0.26428    0.18384    0.02996    1.000
    O344     O        0.29760    0.20990    0.02840    1.000
    C2053    C        0.28725    0.19247    0.03626    1.000
    C2054    C        0.29329    0.18343    0.06396    1.000
    C2055    C        0.31533    0.18921    0.07155    1.000
    H1540    H        0.32780    0.19610    0.05980    1.000
    C2056    C        0.32251    0.18508    0.10095    1.000
    C2057    C        0.34996    0.19486    0.11239    1.000
    C2058    C        0.35030    0.17179    0.13205    1.000
    C2059    C        0.33157    0.15143    0.13296    1.000
    C2060    C        0.31481    0.16146    0.10943    1.000
    C2061    C        0.28944    0.14396    0.10104    1.000
    H1541    H        0.28210    0.12930    0.10950    1.000
    C2062    C        0.34134    0.21811    0.12268    1.000
    H1542    H        0.34170    0.23150    0.10920    1.000
    H1543    H        0.32360    0.21600    0.12910    1.000
    H1544    H        0.35270    0.22330    0.13710    1.000
    C2063    C        0.37215    0.18938    0.09136    1.000
    H1545    H        0.37350    0.17070    0.08830    1.000
    H1546    H        0.36780    0.19820    0.07510    1.000
    H1547    H        0.38880    0.19590    0.09780    1.000
    C2064    C        0.27992    0.15879    0.07387    1.000
    H1548    H        0.26580    0.15180    0.06430    1.000
    O345     O        0.23572    0.68384    0.97004    1.000
    O346     O        0.20240    0.70990    0.97160    1.000
    C2065    C        0.21275    0.69247    0.96374    1.000
    C2066    C        0.20671    0.68343    0.93604    1.000
    C2067    C        0.18467    0.68921    0.92845    1.000
    H1549    H        0.17220    0.69610    0.94020    1.000
    C2068    C        0.17749    0.68508    0.89905    1.000
    C2069    C        0.15004    0.69486    0.88761    1.000
    C2070    C        0.14970    0.67179    0.86795    1.000
    C2071    C        0.16843    0.65143    0.86704    1.000
    C2072    C        0.18519    0.66146    0.89057    1.000
    C2073    C        0.21056    0.64396    0.89896    1.000
    H1550    H        0.21790    0.62930    0.89050    1.000
    C2074    C        0.15866    0.71811    0.87732    1.000
    H1551    H        0.15830    0.73150    0.89080    1.000
    H1552    H        0.17640    0.71600    0.87090    1.000
    H1553    H        0.14730    0.72330    0.86290    1.000
    C2075    C        0.12785    0.68938    0.90864    1.000
    H1554    H        0.12650    0.67070    0.91170    1.000
    H1555    H        0.13220    0.69820    0.92490    1.000
    H1556    H        0.11120    0.69590    0.90220    1.000
    C2076    C        0.22008    0.65879    0.92613    1.000
    H1557    H        0.23420    0.65180    0.93570    1.000
    O347     O        0.23572    0.18384    0.47004    1.000
    O348     O        0.20240    0.20990    0.47160    1.000
    C2077    C        0.21275    0.19247    0.46374    1.000
    C2078    C        0.20671    0.18343    0.43604    1.000
    C2079    C        0.18467    0.18921    0.42845    1.000
    H1558    H        0.17220    0.19610    0.44020    1.000
    C2080    C        0.17749    0.18508    0.39905    1.000
    C2081    C        0.15004    0.19486    0.38761    1.000
    C2082    C        0.14970    0.17179    0.36795    1.000
    C2083    C        0.16843    0.15143    0.36704    1.000
    C2084    C        0.18519    0.16146    0.39057    1.000
    C2085    C        0.21056    0.14396    0.39896    1.000
    H1559    H        0.21790    0.12930    0.39050    1.000
    C2086    C        0.15866    0.21811    0.37732    1.000
    H1560    H        0.15830    0.23150    0.39080    1.000
    H1561    H        0.17640    0.21600    0.37090    1.000
    H1562    H        0.14730    0.22330    0.36290    1.000
    C2087    C        0.12785    0.18938    0.40864    1.000
    H1563    H        0.12650    0.17070    0.41170    1.000
    H1564    H        0.13220    0.19820    0.42490    1.000
    H1565    H        0.11120    0.19590    0.40220    1.000
    C2088    C        0.22008    0.15879    0.42613    1.000
    H1566    H        0.23420    0.15180    0.43570    1.000
    O349     O        0.73572    0.68384    0.47004    1.000
    O350     O        0.70240    0.70990    0.47160    1.000
    C2089    C        0.71275    0.69247    0.46374    1.000
    C2090    C        0.70671    0.68343    0.43604    1.000
    C2091    C        0.68467    0.68921    0.42845    1.000
    H1567    H        0.67220    0.69610    0.44020    1.000
    C2092    C        0.67749    0.68508    0.39905    1.000
    C2093    C        0.65004    0.69486    0.38761    1.000
    C2094    C        0.64970    0.67179    0.36795    1.000
    C2095    C        0.66843    0.65143    0.36704    1.000
    C2096    C        0.68519    0.66146    0.39057    1.000
    C2097    C        0.71056    0.64396    0.39896    1.000
    H1568    H        0.71790    0.62930    0.39050    1.000
    C2098    C        0.65866    0.71811    0.37732    1.000
    H1569    H        0.65830    0.73150    0.39080    1.000
    H1570    H        0.67640    0.71600    0.37090    1.000
    H1571    H        0.64730    0.72330    0.36290    1.000
    C2099    C        0.62785    0.68938    0.40864    1.000
    H1572    H        0.62650    0.67070    0.41170    1.000
    H1573    H        0.63220    0.69820    0.42490    1.000
    H1574    H        0.61120    0.69590    0.40220    1.000
    C2100    C        0.72008    0.65879    0.42613    1.000
    H1575    H        0.73420    0.65180    0.43570    1.000
    O351     O        0.73572    0.18384    0.97004    1.000
    O352     O        0.70240    0.20990    0.97160    1.000
    C2101    C        0.71275    0.19247    0.96374    1.000
    C2102    C        0.70671    0.18343    0.93604    1.000
    C2103    C        0.68467    0.18921    0.92845    1.000
    H1576    H        0.67220    0.19610    0.94020    1.000
    C2104    C        0.67749    0.18508    0.89905    1.000
    C2105    C        0.65004    0.19486    0.88761    1.000
    C2106    C        0.64970    0.17179    0.86795    1.000
    C2107    C        0.66843    0.15143    0.86704    1.000
    C2108    C        0.68519    0.16146    0.89057    1.000
    C2109    C        0.71056    0.14396    0.89896    1.000
    H1577    H        0.71790    0.12930    0.89050    1.000
    C2110    C        0.65866    0.21811    0.87732    1.000
    H1578    H        0.65830    0.23150    0.89080    1.000
    H1579    H        0.67640    0.21600    0.87090    1.000
    H1580    H        0.64730    0.22330    0.86290    1.000
    C2111    C        0.62785    0.18938    0.90864    1.000
    H1581    H        0.62650    0.17070    0.91170    1.000
    H1582    H        0.63220    0.19820    0.92490    1.000
    H1583    H        0.61120    0.19590    0.90220    1.000
    C2112    C        0.72008    0.15879    0.92613    1.000
    H1584    H        0.73420    0.15180    0.93570    1.000
    O353     O        0.31616    0.97004    0.76428    1.000
    O354     O        0.29010    0.97160    0.79760    1.000
    C2113    C        0.30753    0.96374    0.78725    1.000
    C2114    C        0.31657    0.93604    0.79329    1.000
    C2115    C        0.31079    0.92845    0.81533    1.000
    H1585    H        0.30390    0.94020    0.82780    1.000
    C2116    C        0.31492    0.89905    0.82251    1.000
    C2117    C        0.30514    0.88761    0.84996    1.000
    C2118    C        0.32821    0.86795    0.85030    1.000
    C2119    C        0.34857    0.86704    0.83157    1.000
    C2120    C        0.33854    0.89057    0.81481    1.000
    C2121    C        0.35604    0.89896    0.78944    1.000
    H1586    H        0.37070    0.89050    0.78210    1.000
    C2122    C        0.28189    0.87732    0.84134    1.000
    H1587    H        0.26850    0.89080    0.84170    1.000
    H1588    H        0.28400    0.87090    0.82360    1.000
    H1589    H        0.27670    0.86290    0.85270    1.000
    C2123    C        0.31062    0.90864    0.87215    1.000
    H1590    H        0.32930    0.91170    0.87350    1.000
    H1591    H        0.30180    0.92490    0.86780    1.000
    H1592    H        0.30410    0.90220    0.88880    1.000
    C2124    C        0.34121    0.92613    0.77992    1.000
    H1593    H        0.34820    0.93570    0.76580    1.000
    O355     O        0.31616    0.47004    0.26428    1.000
    O356     O        0.29010    0.47160    0.29760    1.000
    C2125    C        0.30753    0.46374    0.28725    1.000
    C2126    C        0.31657    0.43604    0.29329    1.000
    C2127    C        0.31079    0.42845    0.31533    1.000
    H1594    H        0.30390    0.44020    0.32780    1.000
    C2128    C        0.31492    0.39905    0.32251    1.000
    C2129    C        0.30514    0.38761    0.34996    1.000
    C2130    C        0.32821    0.36795    0.35030    1.000
    C2131    C        0.34857    0.36704    0.33157    1.000
    C2132    C        0.33854    0.39057    0.31481    1.000
    C2133    C        0.35604    0.39896    0.28944    1.000
    H1595    H        0.37070    0.39050    0.28210    1.000
    C2134    C        0.28189    0.37732    0.34134    1.000
    H1596    H        0.26850    0.39080    0.34170    1.000
    H1597    H        0.28400    0.37090    0.32360    1.000
    H1598    H        0.27670    0.36290    0.35270    1.000
    C2135    C        0.31062    0.40864    0.37215    1.000
    H1599    H        0.32930    0.41170    0.37350    1.000
    H1600    H        0.30180    0.42490    0.36780    1.000
    H1601    H        0.30410    0.40220    0.38880    1.000
    C2136    C        0.34121    0.42613    0.27992    1.000
    H1602    H        0.34820    0.43570    0.26580    1.000
    O357     O        0.81616    0.97004    0.26428    1.000
    O358     O        0.79010    0.97160    0.29760    1.000
    C2137    C        0.80753    0.96374    0.28725    1.000
    C2138    C        0.81657    0.93604    0.29329    1.000
    C2139    C        0.81079    0.92845    0.31533    1.000
    H1603    H        0.80390    0.94020    0.32780    1.000
    C2140    C        0.81492    0.89905    0.32251    1.000
    C2141    C        0.80514    0.88761    0.34996    1.000
    C2142    C        0.82821    0.86795    0.35030    1.000
    C2143    C        0.84857    0.86704    0.33157    1.000
    C2144    C        0.83854    0.89057    0.31481    1.000
    C2145    C        0.85604    0.89896    0.28944    1.000
    H1604    H        0.87070    0.89050    0.28210    1.000
    C2146    C        0.78189    0.87732    0.34134    1.000
    H1605    H        0.76850    0.89080    0.34170    1.000
    H1606    H        0.78400    0.87090    0.32360    1.000
    H1607    H        0.77670    0.86290    0.35270    1.000
    C2147    C        0.81062    0.90864    0.37215    1.000
    H1608    H        0.82930    0.91170    0.37350    1.000
    H1609    H        0.80180    0.92490    0.36780    1.000
    H1610    H        0.80410    0.90220    0.38880    1.000
    C2148    C        0.84121    0.92613    0.27992    1.000
    H1611    H        0.84820    0.93570    0.26580    1.000
    O359     O        0.81616    0.47004    0.76428    1.000
    O360     O        0.79010    0.47160    0.79760    1.000
    C2149    C        0.80753    0.46374    0.78725    1.000
    C2150    C        0.81657    0.43604    0.79329    1.000
    C2151    C        0.81079    0.42845    0.81533    1.000
    H1612    H        0.80390    0.44020    0.82780    1.000
    C2152    C        0.81492    0.39905    0.82251    1.000
    C2153    C        0.80514    0.38761    0.84996    1.000
    C2154    C        0.82821    0.36795    0.85030    1.000
    C2155    C        0.84857    0.36704    0.83157    1.000
    C2156    C        0.83854    0.39057    0.81481    1.000
    C2157    C        0.85604    0.39896    0.78944    1.000
    H1613    H        0.87070    0.39050    0.78210    1.000
    C2158    C        0.78189    0.37732    0.84134    1.000
    H1614    H        0.76850    0.39080    0.84170    1.000
    H1615    H        0.78400    0.37090    0.82360    1.000
    H1616    H        0.77670    0.36290    0.85270    1.000
    C2159    C        0.81062    0.40864    0.87215    1.000
    H1617    H        0.82930    0.41170    0.87350    1.000
    H1618    H        0.80180    0.42490    0.86780    1.000
    H1619    H        0.80410    0.40220    0.88880    1.000
    C2160    C        0.84121    0.42613    0.77992    1.000
    H1620    H        0.84820    0.43570    0.76580    1.000
    O361     O        0.31616    0.02996    0.23572    1.000
    O362     O        0.29010    0.02840    0.20240    1.000
    C2161    C        0.30753    0.03626    0.21275    1.000
    C2162    C        0.31657    0.06396    0.20671    1.000
    C2163    C        0.31079    0.07155    0.18467    1.000
    H1621    H        0.30390    0.05980    0.17220    1.000
    C2164    C        0.31492    0.10095    0.17749    1.000
    C2165    C        0.30514    0.11239    0.15004    1.000
    C2166    C        0.32821    0.13205    0.14970    1.000
    C2167    C        0.34857    0.13296    0.16843    1.000
    C2168    C        0.33854    0.10943    0.18519    1.000
    C2169    C        0.35604    0.10104    0.21056    1.000
    H1622    H        0.37070    0.10950    0.21790    1.000
    C2170    C        0.28189    0.12268    0.15866    1.000
    H1623    H        0.26850    0.10920    0.15830    1.000
    H1624    H        0.28400    0.12910    0.17640    1.000
    H1625    H        0.27670    0.13710    0.14730    1.000
    C2171    C        0.31062    0.09136    0.12785    1.000
    H1626    H        0.32930    0.08830    0.12650    1.000
    H1627    H        0.30180    0.07510    0.13220    1.000
    H1628    H        0.30410    0.09780    0.11120    1.000
    C2172    C        0.34121    0.07387    0.22008    1.000
    H1629    H        0.34820    0.06430    0.23420    1.000
    O363     O        0.31616    0.52996    0.73572    1.000
    O364     O        0.29010    0.52840    0.70240    1.000
    C2173    C        0.30753    0.53626    0.71275    1.000
    C2174    C        0.31657    0.56396    0.70671    1.000
    C2175    C        0.31079    0.57155    0.68467    1.000
    H1630    H        0.30390    0.55980    0.67220    1.000
    C2176    C        0.31492    0.60095    0.67749    1.000
    C2177    C        0.30514    0.61239    0.65004    1.000
    C2178    C        0.32821    0.63205    0.64970    1.000
    C2179    C        0.34857    0.63296    0.66843    1.000
    C2180    C        0.33854    0.60943    0.68519    1.000
    C2181    C        0.35604    0.60104    0.71056    1.000
    H1631    H        0.37070    0.60950    0.71790    1.000
    C2182    C        0.28189    0.62268    0.65866    1.000
    H1632    H        0.26850    0.60920    0.65830    1.000
    H1633    H        0.28400    0.62910    0.67640    1.000
    H1634    H        0.27670    0.63710    0.64730    1.000
    C2183    C        0.31062    0.59136    0.62785    1.000
    H1635    H        0.32930    0.58830    0.62650    1.000
    H1636    H        0.30180    0.57510    0.63220    1.000
    H1637    H        0.30410    0.59780    0.61120    1.000
    C2184    C        0.34121    0.57387    0.72008    1.000
    H1638    H        0.34820    0.56430    0.73420    1.000
    O365     O        0.81616    0.02996    0.73572    1.000
    O366     O        0.79010    0.02840    0.70240    1.000
    C2185    C        0.80753    0.03626    0.71275    1.000
    C2186    C        0.81657    0.06396    0.70671    1.000
    C2187    C        0.81079    0.07155    0.68467    1.000
    H1639    H        0.80390    0.05980    0.67220    1.000
    C2188    C        0.81492    0.10095    0.67749    1.000
    C2189    C        0.80514    0.11239    0.65004    1.000
    C2190    C        0.82821    0.13205    0.64970    1.000
    C2191    C        0.84857    0.13296    0.66843    1.000
    C2192    C        0.83854    0.10943    0.68519    1.000
    C2193    C        0.85604    0.10104    0.71056    1.000
    H1640    H        0.87070    0.10950    0.71790    1.000
    C2194    C        0.78189    0.12268    0.65866    1.000
    H1641    H        0.76850    0.10920    0.65830    1.000
    H1642    H        0.78400    0.12910    0.67640    1.000
    H1643    H        0.77670    0.13710    0.64730    1.000
    C2195    C        0.81062    0.09136    0.62785    1.000
    H1644    H        0.82930    0.08830    0.62650    1.000
    H1645    H        0.80180    0.07510    0.63220    1.000
    H1646    H        0.80410    0.09780    0.61120    1.000
    C2196    C        0.84121    0.07387    0.72008    1.000
    H1647    H        0.84820    0.06430    0.73420    1.000
    O367     O        0.81616    0.52996    0.23572    1.000
    O368     O        0.79010    0.52840    0.20240    1.000
    C2197    C        0.80753    0.53626    0.21275    1.000
    C2198    C        0.81657    0.56396    0.20671    1.000
    C2199    C        0.81079    0.57155    0.18467    1.000
    H1648    H        0.80390    0.55980    0.17220    1.000
    C2200    C        0.81492    0.60095    0.17749    1.000
    C2201    C        0.80514    0.61239    0.15004    1.000
    C2202    C        0.82821    0.63205    0.14970    1.000
    C2203    C        0.84857    0.63296    0.16843    1.000
    C2204    C        0.83854    0.60943    0.18519    1.000
    C2205    C        0.85604    0.60104    0.21056    1.000
    H1649    H        0.87070    0.60950    0.21790    1.000
    C2206    C        0.78189    0.62268    0.15866    1.000
    H1650    H        0.76850    0.60920    0.15830    1.000
    H1651    H        0.78400    0.62910    0.17640    1.000
    H1652    H        0.77670    0.63710    0.14730    1.000
    C2207    C        0.81062    0.59136    0.12785    1.000
    H1653    H        0.82930    0.58830    0.12650    1.000
    H1654    H        0.80180    0.57510    0.13220    1.000
    H1655    H        0.80410    0.59780    0.11120    1.000
    C2208    C        0.84121    0.57387    0.22008    1.000
    H1656    H        0.84820    0.56430    0.23420    1.000
    O369     O        0.68384    0.97004    0.23572    1.000
    O370     O        0.70990    0.97160    0.20240    1.000
    C2209    C        0.69247    0.96374    0.21275    1.000
    C2210    C        0.68343    0.93604    0.20671    1.000
    C2211    C        0.68921    0.92845    0.18467    1.000
    H1657    H        0.69610    0.94020    0.17220    1.000
    C2212    C        0.68508    0.89905    0.17749    1.000
    C2213    C        0.69486    0.88761    0.15004    1.000
    C2214    C        0.67179    0.86795    0.14970    1.000
    C2215    C        0.65143    0.86704    0.16843    1.000
    C2216    C        0.66146    0.89057    0.18519    1.000
    C2217    C        0.64396    0.89896    0.21056    1.000
    H1658    H        0.62930    0.89050    0.21790    1.000
    C2218    C        0.71811    0.87732    0.15866    1.000
    H1659    H        0.73150    0.89080    0.15830    1.000
    H1660    H        0.71600    0.87090    0.17640    1.000
    H1661    H        0.72330    0.86290    0.14730    1.000
    C2219    C        0.68938    0.90864    0.12785    1.000
    H1662    H        0.67070    0.91170    0.12650    1.000
    H1663    H        0.69820    0.92490    0.13220    1.000
    H1664    H        0.69590    0.90220    0.11120    1.000
    C2220    C        0.65879    0.92613    0.22008    1.000
    H1665    H        0.65180    0.93570    0.23420    1.000
    O371     O        0.68384    0.47004    0.73572    1.000
    O372     O        0.70990    0.47160    0.70240    1.000
    C2221    C        0.69247    0.46374    0.71275    1.000
    C2222    C        0.68343    0.43604    0.70671    1.000
    C2223    C        0.68921    0.42845    0.68467    1.000
    H1666    H        0.69610    0.44020    0.67220    1.000
    C2224    C        0.68508    0.39905    0.67749    1.000
    C2225    C        0.69486    0.38761    0.65004    1.000
    C2226    C        0.67179    0.36795    0.64970    1.000
    C2227    C        0.65143    0.36704    0.66843    1.000
    C2228    C        0.66146    0.39057    0.68519    1.000
    C2229    C        0.64396    0.39896    0.71056    1.000
    H1667    H        0.62930    0.39050    0.71790    1.000
    C2230    C        0.71811    0.37732    0.65866    1.000
    H1668    H        0.73150    0.39080    0.65830    1.000
    H1669    H        0.71600    0.37090    0.67640    1.000
    H1670    H        0.72330    0.36290    0.64730    1.000
    C2231    C        0.68938    0.40864    0.62785    1.000
    H1671    H        0.67070    0.41170    0.62650    1.000
    H1672    H        0.69820    0.42490    0.63220    1.000
    H1673    H        0.69590    0.40220    0.61120    1.000
    C2232    C        0.65879    0.42613    0.72008    1.000
    H1674    H        0.65180    0.43570    0.73420    1.000
    O373     O        0.18384    0.97004    0.73572    1.000
    O374     O        0.20990    0.97160    0.70240    1.000
    C2233    C        0.19247    0.96374    0.71275    1.000
    C2234    C        0.18343    0.93604    0.70671    1.000
    C2235    C        0.18921    0.92845    0.68467    1.000
    H1675    H        0.19610    0.94020    0.67220    1.000
    C2236    C        0.18508    0.89905    0.67749    1.000
    C2237    C        0.19486    0.88761    0.65004    1.000
    C2238    C        0.17179    0.86795    0.64970    1.000
    C2239    C        0.15143    0.86704    0.66843    1.000
    C2240    C        0.16146    0.89057    0.68519    1.000
    C2241    C        0.14396    0.89896    0.71056    1.000
    H1676    H        0.12930    0.89050    0.71790    1.000
    C2242    C        0.21811    0.87732    0.65866    1.000
    H1677    H        0.23150    0.89080    0.65830    1.000
    H1678    H        0.21600    0.87090    0.67640    1.000
    H1679    H        0.22330    0.86290    0.64730    1.000
    C2243    C        0.18938    0.90864    0.62785    1.000
    H1680    H        0.17070    0.91170    0.62650    1.000
    H1681    H        0.19820    0.92490    0.63220    1.000
    H1682    H        0.19590    0.90220    0.61120    1.000
    C2244    C        0.15879    0.92613    0.72008    1.000
    H1683    H        0.15180    0.93570    0.73420    1.000
    O375     O        0.18384    0.47004    0.23572    1.000
    O376     O        0.20990    0.47160    0.20240    1.000
    C2245    C        0.19247    0.46374    0.21275    1.000
    C2246    C        0.18343    0.43604    0.20671    1.000
    C2247    C        0.18921    0.42845    0.18467    1.000
    H1684    H        0.19610    0.44020    0.17220    1.000
    C2248    C        0.18508    0.39905    0.17749    1.000
    C2249    C        0.19486    0.38761    0.15004    1.000
    C2250    C        0.17179    0.36795    0.14970    1.000
    C2251    C        0.15143    0.36704    0.16843    1.000
    C2252    C        0.16146    0.39057    0.18519    1.000
    C2253    C        0.14396    0.39896    0.21056    1.000
    H1685    H        0.12930    0.39050    0.21790    1.000
    C2254    C        0.21811    0.37732    0.15866    1.000
    H1686    H        0.23150    0.39080    0.15830    1.000
    H1687    H        0.21600    0.37090    0.17640    1.000
    H1688    H        0.22330    0.36290    0.14730    1.000
    C2255    C        0.18938    0.40864    0.12785    1.000
    H1689    H        0.17070    0.41170    0.12650    1.000
    H1690    H        0.19820    0.42490    0.13220    1.000
    H1691    H        0.19590    0.40220    0.11120    1.000
    C2256    C        0.15879    0.42613    0.22008    1.000
    H1692    H        0.15180    0.43570    0.23420    1.000
    O377     O        0.68384    0.02996    0.76428    1.000
    O378     O        0.70990    0.02840    0.79760    1.000
    C2257    C        0.69247    0.03626    0.78725    1.000
    C2258    C        0.68343    0.06396    0.79329    1.000
    C2259    C        0.68921    0.07155    0.81533    1.000
    H1693    H        0.69610    0.05980    0.82780    1.000
    C2260    C        0.68508    0.10095    0.82251    1.000
    C2261    C        0.69486    0.11239    0.84996    1.000
    C2262    C        0.67179    0.13205    0.85030    1.000
    C2263    C        0.65143    0.13296    0.83157    1.000
    C2264    C        0.66146    0.10943    0.81481    1.000
    C2265    C        0.64396    0.10104    0.78944    1.000
    H1694    H        0.62930    0.10950    0.78210    1.000
    C2266    C        0.71811    0.12268    0.84134    1.000
    H1695    H        0.73150    0.10920    0.84170    1.000
    H1696    H        0.71600    0.12910    0.82360    1.000
    H1697    H        0.72330    0.13710    0.85270    1.000
    C2267    C        0.68938    0.09136    0.87215    1.000
    H1698    H        0.67070    0.08830    0.87350    1.000
    H1699    H        0.69820    0.07510    0.86780    1.000
    H1700    H        0.69590    0.09780    0.88880    1.000
    C2268    C        0.65879    0.07387    0.77992    1.000
    H1701    H        0.65180    0.06430    0.76580    1.000
    O379     O        0.68384    0.52996    0.26428    1.000
    O380     O        0.70990    0.52840    0.29760    1.000
    C2269    C        0.69247    0.53626    0.28725    1.000
    C2270    C        0.68343    0.56396    0.29329    1.000
    C2271    C        0.68921    0.57155    0.31533    1.000
    H1702    H        0.69610    0.55980    0.32780    1.000
    C2272    C        0.68508    0.60095    0.32251    1.000
    C2273    C        0.69486    0.61239    0.34996    1.000
    C2274    C        0.67179    0.63205    0.35030    1.000
    C2275    C        0.65143    0.63296    0.33157    1.000
    C2276    C        0.66146    0.60943    0.31481    1.000
    C2277    C        0.64396    0.60104    0.28944    1.000
    H1703    H        0.62930    0.60950    0.28210    1.000
    C2278    C        0.71811    0.62268    0.34134    1.000
    H1704    H        0.73150    0.60920    0.34170    1.000
    H1705    H        0.71600    0.62910    0.32360    1.000
    H1706    H        0.72330    0.63710    0.35270    1.000
    C2279    C        0.68938    0.59136    0.37215    1.000
    H1707    H        0.67070    0.58830    0.37350    1.000
    H1708    H        0.69820    0.57510    0.36780    1.000
    H1709    H        0.69590    0.59780    0.38880    1.000
    C2280    C        0.65879    0.57387    0.27992    1.000
    H1710    H        0.65180    0.56430    0.26580    1.000
    O381     O        0.18384    0.02996    0.26428    1.000
    O382     O        0.20990    0.02840    0.29760    1.000
    C2281    C        0.19247    0.03626    0.28725    1.000
    C2282    C        0.18343    0.06396    0.29329    1.000
    C2283    C        0.18921    0.07155    0.31533    1.000
    H1711    H        0.19610    0.05980    0.32780    1.000
    C2284    C        0.18508    0.10095    0.32251    1.000
    C2285    C        0.19486    0.11239    0.34996    1.000
    C2286    C        0.17179    0.13205    0.35030    1.000
    C2287    C        0.15143    0.13296    0.33157    1.000
    C2288    C        0.16146    0.10943    0.31481    1.000
    C2289    C        0.14396    0.10104    0.28944    1.000
    H1712    H        0.12930    0.10950    0.28210    1.000
    C2290    C        0.21811    0.12268    0.34134    1.000
    H1713    H        0.23150    0.10920    0.34170    1.000
    H1714    H        0.21600    0.12910    0.32360    1.000
    H1715    H        0.22330    0.13710    0.35270    1.000
    C2291    C        0.18938    0.09136    0.37215    1.000
    H1716    H        0.17070    0.08830    0.37350    1.000
    H1717    H        0.19820    0.07510    0.36780    1.000
    H1718    H        0.19590    0.09780    0.38880    1.000
    C2292    C        0.15879    0.07387    0.27992    1.000
    H1719    H        0.15180    0.06430    0.26580    1.000
    O383     O        0.18384    0.52996    0.76428    1.000
    O384     O        0.20990    0.52840    0.79760    1.000
    C2293    C        0.19247    0.53626    0.78725    1.000
    C2294    C        0.18343    0.56396    0.79329    1.000
    C2295    C        0.18921    0.57155    0.81533    1.000
    H1720    H        0.19610    0.55980    0.82780    1.000
    C2296    C        0.18508    0.60095    0.82251    1.000
    C2297    C        0.19486    0.61239    0.84996    1.000
    C2298    C        0.17179    0.63205    0.85030    1.000
    C2299    C        0.15143    0.63296    0.83157    1.000
    C2300    C        0.16146    0.60943    0.81481    1.000
    C2301    C        0.14396    0.60104    0.78944    1.000
    H1721    H        0.12930    0.60950    0.78210    1.000
    C2302    C        0.21811    0.62268    0.84134    1.000
    H1722    H        0.23150    0.60920    0.84170    1.000
    H1723    H        0.21600    0.62910    0.82360    1.000
    H1724    H        0.22330    0.63710    0.85270    1.000
    C2303    C        0.18938    0.59136    0.87215    1.000
    H1725    H        0.17070    0.58830    0.87350    1.000
    H1726    H        0.19820    0.57510    0.86780    1.000
    H1727    H        0.19590    0.59780    0.88880    1.000
    C2304    C        0.15879    0.57387    0.77992    1.000
    H1728    H        0.15180    0.56430    0.76580    1.000
    Y1       Y        0.23311    0.50000    0.18654    1.000
    Y2       Y        0.23311    0.00000    0.68654    1.000
    Y3       Y        0.73311    0.50000    0.68654    1.000
    Y4       Y        0.73311    0.00000    0.18654    1.000
    Y5       Y        0.76689    0.50000    0.18654    1.000
    Y6       Y        0.76689    0.00000    0.68654    1.000
    Y7       Y        0.26689    0.50000    0.68654    1.000
    Y8       Y        0.26689    0.00000    0.18654    1.000
    Y9       Y        0.76689    0.50000    0.81346    1.000
    Y10      Y        0.76689    0.00000    0.31346    1.000
    Y11      Y        0.26689    0.50000    0.31346    1.000
    Y12      Y        0.26689    0.00000    0.81346    1.000
    Y13      Y        0.23311    0.50000    0.81346    1.000
    Y14      Y        0.23311    0.00000    0.31346    1.000
    Y15      Y        0.73311    0.50000    0.31346    1.000
    Y16      Y        0.73311    0.00000    0.81346    1.000
    Y17      Y        0.18654    0.23311    0.50000    1.000
    Y18      Y        0.18654    0.73311    0.00000    1.000
    Y19      Y        0.68654    0.23311    0.00000    1.000
    Y20      Y        0.68654    0.73311    0.50000    1.000
    Y21      Y        0.18654    0.76689    0.50000    1.000
    Y22      Y        0.18654    0.26689    0.00000    1.000
    Y23      Y        0.68654    0.76689    0.00000    1.000
    Y24      Y        0.68654    0.26689    0.50000    1.000
    Y25      Y        0.81346    0.76689    0.50000    1.000
    Y26      Y        0.81346    0.26689    0.00000    1.000
    Y27      Y        0.31346    0.76689    0.00000    1.000
    Y28      Y        0.31346    0.26689    0.50000    1.000
    Y29      Y        0.81346    0.23311    0.50000    1.000
    Y30      Y        0.81346    0.73311    0.00000    1.000
    Y31      Y        0.31346    0.23311    0.00000    1.000
    Y32      Y        0.31346    0.73311    0.50000    1.000
    Y33      Y        0.50000    0.18654    0.23311    1.000
    Y34      Y        0.50000    0.68654    0.73311    1.000
    Y35      Y        0.00000    0.18654    0.73311    1.000
    Y36      Y        0.00000    0.68654    0.23311    1.000
    Y37      Y        0.50000    0.18654    0.76689    1.000
    Y38      Y        0.50000    0.68654    0.26689    1.000
    Y39      Y        0.00000    0.18654    0.26689    1.000
    Y40      Y        0.00000    0.68654    0.76689    1.000
    Y41      Y        0.50000    0.81346    0.76689    1.000
    Y42      Y        0.50000    0.31346    0.26689    1.000
    Y43      Y        0.00000    0.81346    0.26689    1.000
    Y44      Y        0.00000    0.31346    0.76689    1.000
    Y45      Y        0.50000    0.81346    0.23311    1.000
    Y46      Y        0.50000    0.31346    0.73311    1.000
    Y47      Y        0.00000    0.81346    0.73311    1.000
    Y48      Y        0.00000    0.31346    0.23311    1.000
    Y49      Y        0.00000    0.73311    0.31346    1.000
    Y50      Y        0.00000    0.23311    0.81346    1.000
    Y51      Y        0.50000    0.73311    0.81346    1.000
    Y52      Y        0.50000    0.23311    0.31346    1.000
    Y53      Y        0.00000    0.26689    0.31346    1.000
    Y54      Y        0.00000    0.76689    0.81346    1.000
    Y55      Y        0.50000    0.26689    0.81346    1.000
    Y56      Y        0.50000    0.76689    0.31346    1.000
    Y57      Y        0.00000    0.26689    0.68654    1.000
    Y58      Y        0.00000    0.76689    0.18654    1.000
    Y59      Y        0.50000    0.26689    0.18654    1.000
    Y60      Y        0.50000    0.76689    0.68654    1.000
    Y61      Y        0.00000    0.73311    0.68654    1.000
    Y62      Y        0.00000    0.23311    0.18654    1.000
    Y63      Y        0.50000    0.73311    0.18654    1.000
    Y64      Y        0.50000    0.23311    0.68654    1.000
    Y65      Y        0.73311    0.68654    0.00000    1.000
    Y66      Y        0.73311    0.18654    0.50000    1.000
    Y67      Y        0.23311    0.68654    0.50000    1.000
    Y68      Y        0.23311    0.18654    0.00000    1.000
    Y69      Y        0.26689    0.68654    0.00000    1.000
    Y70      Y        0.26689    0.18654    0.50000    1.000
    Y71      Y        0.76689    0.68654    0.50000    1.000
    Y72      Y        0.76689    0.18654    0.00000    1.000
    Y73      Y        0.26689    0.31346    0.00000    1.000
    Y74      Y        0.26689    0.81346    0.50000    1.000
    Y75      Y        0.76689    0.31346    0.50000    1.000
    Y76      Y        0.76689    0.81346    0.00000    1.000
    Y77      Y        0.73311    0.31346    0.00000    1.000
    Y78      Y        0.73311    0.81346    0.50000    1.000
    Y79      Y        0.23311    0.31346    0.50000    1.000
    Y80      Y        0.23311    0.81346    0.00000    1.000
    Y81      Y        0.68654    0.00000    0.26689    1.000
    Y82      Y        0.68654    0.50000    0.76689    1.000
    Y83      Y        0.18654    0.00000    0.76689    1.000
    Y84      Y        0.18654    0.50000    0.26689    1.000
    Y85      Y        0.68654    0.00000    0.73311    1.000
    Y86      Y        0.68654    0.50000    0.23311    1.000
    Y87      Y        0.18654    0.00000    0.23311    1.000
    Y88      Y        0.18654    0.50000    0.73311    1.000
    Y89      Y        0.31346    0.00000    0.73311    1.000
    Y90      Y        0.31346    0.50000    0.23311    1.000
    Y91      Y        0.81346    0.00000    0.23311    1.000
    Y92      Y        0.81346    0.50000    0.73311    1.000
    Y93      Y        0.31346    0.00000    0.26689    1.000
    Y94      Y        0.31346    0.50000    0.76689    1.000
    Y95      Y        0.81346    0.00000    0.76689    1.000
    Y96      Y        0.81346    0.50000    0.26689    1.000
