# CIF file generated by openbabel 3.1.0, see https://openbabel.org
data_I
_chemical_name_common 'image0'
_cell_length_a 8.0306
_cell_length_b 19.408
_cell_length_c 8.8862
_cell_angle_alpha 90
_cell_angle_beta 92.816
_cell_angle_gamma 90
_space_group_name_H-M_alt 'P 1'
_space_group_name_Hall 'P 1'
loop_
    _symmetry_equiv_pos_as_xyz
    x,y,z
loop_
    _atom_site_label
    _atom_site_type_symbol
    _atom_site_fract_x
    _atom_site_fract_y
    _atom_site_fract_z
    _atom_site_occupancy
    N1       N        0.86380    0.08010    0.08400    1.000
    N2       N        0.69440    0.08630    0.06980    1.000
    N3       N        0.79620    0.17830    0.16330    1.000
    N4       N        0.82540    0.24340    0.22390    1.000
    N5       N        0.69330    0.27450    0.22240    1.000
    N6       N        0.72050    0.33810    0.28230    1.000
    N7       N        0.64600    0.42910    0.39560    1.000
    N8       N        0.81650    0.42520    0.40450    1.000
    N9       N        0.15450    0.00360    0.19280    1.000
    N10      N        0.07920    0.00490    0.33170    1.000
    N11      N        0.34440    0.00250    0.36820    1.000
    N12      N        0.50180    0.99990    0.43060    1.000
    C1       C        0.92170    0.13460    0.14120    1.000
    H1       H        0.03390    0.14330    0.16460    1.000
    C2       C        0.65680    0.14500    0.11870    1.000
    H2       H        0.54910    0.16230    0.12300    1.000
    C3       C        0.59270    0.37680    0.32140    1.000
    H3       H        0.48100    0.36720    0.29790    1.000
    C4       C        0.85650    0.36980    0.33970    1.000
    H4       H        0.96490    0.35370    0.33310    1.000
    C5       C        0.31380    0.00270    0.21940    1.000
    H5       H        0.39370    0.00220    0.14710    1.000
    C6       C        0.19480    0.00370    0.43370    1.000
    H6       H        0.17990    0.00360    0.53690    1.000
    N13      N        0.63620    0.58010    0.41600    1.000
    N14      N        0.80560    0.58630    0.43020    1.000
    N15      N        0.70380    0.67830    0.33670    1.000
    N16      N        0.67460    0.74340    0.27610    1.000
    N17      N        0.80670    0.77450    0.27760    1.000
    N18      N        0.77950    0.83810    0.21770    1.000
    N19      N        0.85400    0.92910    0.10440    1.000
    N20      N        0.68350    0.92520    0.09550    1.000
    N21      N        0.34550    0.50360    0.30720    1.000
    N22      N        0.42080    0.50490    0.16830    1.000
    N23      N        0.15560    0.50250    0.13180    1.000
    N24      N        0.99820    0.49990    0.06940    1.000
    C7       C        0.57830    0.63460    0.35880    1.000
    H7       H        0.46610    0.64330    0.33540    1.000
    C8       C        0.84320    0.64500    0.38130    1.000
    H8       H        0.95090    0.66230    0.37700    1.000
    C9       C        0.90730    0.87680    0.17860    1.000
    H9       H        0.01900    0.86720    0.20210    1.000
    C10      C        0.64350    0.86980    0.16030    1.000
    H10      H        0.53510    0.85370    0.16690    1.000
    C11      C        0.18620    0.50270    0.28060    1.000
    H11      H        0.10630    0.50220    0.35290    1.000
    C12      C        0.30520    0.50370    0.06630    1.000
    H12      H        0.32010    0.50360    0.96310    1.000
    N25      N        0.13620    0.91990    0.91600    1.000
    N26      N        0.30560    0.91370    0.93020    1.000
    N27      N        0.20380    0.82170    0.83670    1.000
    N28      N        0.17460    0.75660    0.77610    1.000
    N29      N        0.30670    0.72550    0.77760    1.000
    N30      N        0.27950    0.66190    0.71770    1.000
    N31      N        0.35400    0.57090    0.60440    1.000
    N32      N        0.18350    0.57480    0.59550    1.000
    N33      N        0.84550    0.99640    0.80720    1.000
    N34      N        0.92080    0.99510    0.66830    1.000
    N35      N        0.65560    0.99750    0.63180    1.000
    N36      N        0.49820    0.00010    0.56940    1.000
    C13      C        0.07830    0.86540    0.85880    1.000
    H13      H        0.96610    0.85670    0.83540    1.000
    C14      C        0.34320    0.85500    0.88130    1.000
    H14      H        0.45090    0.83770    0.87700    1.000
    C15      C        0.40730    0.62320    0.67860    1.000
    H15      H        0.51900    0.63280    0.70210    1.000
    C16      C        0.14350    0.63020    0.66030    1.000
    H16      H        0.03510    0.64630    0.66690    1.000
    C17      C        0.68620    0.99730    0.78060    1.000
    H17      H        0.60630    0.99780    0.85290    1.000
    C18      C        0.80520    0.99630    0.56630    1.000
    H18      H        0.82010    0.99640    0.46310    1.000
    N37      N        0.36380    0.41990    0.58400    1.000
    N38      N        0.19440    0.41370    0.56980    1.000
    N39      N        0.29620    0.32170    0.66330    1.000
    N40      N        0.32540    0.25660    0.72390    1.000
    N41      N        0.19330    0.22550    0.72240    1.000
    N42      N        0.22050    0.16190    0.78230    1.000
    N43      N        0.14600    0.07090    0.89560    1.000
    N44      N        0.31650    0.07480    0.90450    1.000
    N45      N        0.65450    0.49640    0.69280    1.000
    N46      N        0.57920    0.49510    0.83170    1.000
    N47      N        0.84440    0.49750    0.86820    1.000
    N48      N        0.00180    0.50010    0.93060    1.000
    C19      C        0.42170    0.36540    0.64120    1.000
    H19      H        0.53390    0.35670    0.66460    1.000
    C20      C        0.15680    0.35500    0.61870    1.000
    H20      H        0.04910    0.33770    0.62300    1.000
    C21      C        0.09270    0.12320    0.82140    1.000
    H21      H        0.98100    0.13280    0.79790    1.000
    C22      C        0.35650    0.13020    0.83970    1.000
    H22      H        0.46490    0.14630    0.83310    1.000
    C23      C        0.81380    0.49730    0.71940    1.000
    H23      H        0.89370    0.49780    0.64710    1.000
    C24      C        0.69480    0.49630    0.93370    1.000
    H24      H        0.67990    0.49640    0.03690    1.000
    Fe1      Fe       0.00000    0.00000    0.00000    1.000
    Fe2      Fe       0.50000    0.50000    0.50000    1.000
