# CIF file generated by openbabel 3.1.0, see https://openbabel.org
data_I
_chemical_name_common 'image0'
_cell_length_a 21.8815
_cell_length_b 21.8815
_cell_length_c 75.31
_cell_angle_alpha 90
_cell_angle_beta 90
_cell_angle_gamma 120
_space_group_name_H-M_alt 'P 1'
_space_group_name_Hall 'P 1'
loop_
    _symmetry_equiv_pos_as_xyz
    x,y,z
loop_
    _atom_site_label
    _atom_site_type_symbol
    _atom_site_fract_x
    _atom_site_fract_y
    _atom_site_fract_z
    _atom_site_occupancy
    Ag1      Ag       0.43243    0.74044    0.00547    1.000
    Ag2      Ag       0.43175    0.69276    0.85749    1.000
    Ca1      Ca       0.63054    0.86750    0.90621    1.000
    S1       S        0.45857    0.75814    0.96130    1.000
    S2       S        0.36471    0.79051    0.01944    1.000
    N1       N        0.53420    0.81550    0.99093    1.000
    N2       N        0.53480    0.71930    0.84314    1.000
    O1       O        0.58130    0.89160    0.93484    1.000
    O2       O        0.62880    0.82600    0.93689    1.000
    O3       O        0.67460    0.89380    0.87767    1.000
    O4       O        0.77950    0.98600    0.87929    1.000
    C1       C        0.53540    0.81530    0.97354    1.000
    C2       C        0.59810    0.85940    0.96350    1.000
    C3       C        0.65920    0.90510    0.97324    1.000
    H1       H        0.70090    0.93590    0.96740    1.000
    C4       C        0.65600    0.90330    0.99155    1.000
    H2       H        0.69610    0.93190    0.99820    1.000
    C5       C        0.59290    0.85880    0.99986    1.000
    H3       H        0.59120    0.85890    0.01220    1.000
    C6       C        0.60310    0.85940    0.94375    1.000
    C7       C        0.72990    0.93450    0.87096    1.000
    C8       C        0.73460    0.92930    0.85070    1.000
    C9       C        0.79800    0.94760    0.84114    1.000
    C10      C        0.59420    0.73700    0.85192    1.000
    H4       H        0.59300    0.73810    0.86430    1.000
    C11      C        0.65690    0.75370    0.84397    1.000
    H5       H        0.69650    0.76350    0.85070    1.000
    C12      C        0.65910    0.75520    0.82607    1.000
    H6       H        0.70150    0.76850    0.82030    1.000
    Ag3      Ag       0.09910    0.07377    0.33880    1.000
    Ag4      Ag       0.09842    0.02609    0.19083    1.000
    Ca2      Ca       0.29721    0.20083    0.23954    1.000
    S3       S        0.12524    0.09147    0.29463    1.000
    S4       S        0.03138    0.12384    0.35277    1.000
    N3       N        0.20087    0.14883    0.32426    1.000
    N4       N        0.20147    0.05263    0.17647    1.000
    O5       O        0.24797    0.22493    0.26817    1.000
    O6       O        0.29547    0.15933    0.27022    1.000
    O7       O        0.34127    0.22713    0.21100    1.000
    O8       O        0.44617    0.31933    0.21262    1.000
    C13      C        0.20207    0.14863    0.30687    1.000
    C14      C        0.26477    0.19273    0.29683    1.000
    C15      C        0.32587    0.23843    0.30657    1.000
    H7       H        0.36757    0.26923    0.30073    1.000
    C16      C        0.32267    0.23663    0.32488    1.000
    H8       H        0.36277    0.26523    0.33153    1.000
    C17      C        0.25957    0.19213    0.33319    1.000
    H9       H        0.25787    0.19223    0.34553    1.000
    C18      C        0.26977    0.19273    0.27708    1.000
    C19      C        0.39657    0.26783    0.20429    1.000
    C20      C        0.40127    0.26263    0.18403    1.000
    C21      C        0.46467    0.28093    0.17447    1.000
    C22      C        0.26087    0.07033    0.18525    1.000
    H10      H        0.25967    0.07143    0.19763    1.000
    C23      C        0.32357    0.08703    0.17730    1.000
    H11      H        0.36317    0.09683    0.18403    1.000
    C24      C        0.32577    0.08853    0.15940    1.000
    H12      H        0.36817    0.10183    0.15363    1.000
    Ag5      Ag       0.76576    0.40711    0.67213    1.000
    Ag6      Ag       0.76508    0.35943    0.52416    1.000
    Ca3      Ca       0.96387    0.53417    0.57288    1.000
    S5       S        0.79190    0.42481    0.62797    1.000
    S6       S        0.69804    0.45718    0.68611    1.000
    N5       N        0.86753    0.48217    0.65760    1.000
    N6       N        0.86813    0.38597    0.50981    1.000
    O9       O        0.91463    0.55827    0.60151    1.000
    O10      O        0.96213    0.49267    0.60356    1.000
    O11      O        0.00793    0.56047    0.54434    1.000
    O12      O        0.11283    0.65267    0.54596    1.000
    C25      C        0.86873    0.48197    0.64021    1.000
    C26      C        0.93143    0.52607    0.63017    1.000
    C27      C        0.99253    0.57177    0.63991    1.000
    H13      H        0.03423    0.60257    0.63407    1.000
    C28      C        0.98933    0.56997    0.65822    1.000
    H14      H        0.02943    0.59857    0.66487    1.000
    C29      C        0.92623    0.52547    0.66653    1.000
    H15      H        0.92453    0.52557    0.67887    1.000
    C30      C        0.93643    0.52607    0.61042    1.000
    C31      C        0.06323    0.60117    0.53763    1.000
    C32      C        0.06793    0.59597    0.51737    1.000
    C33      C        0.13133    0.61427    0.50781    1.000
    C34      C        0.92753    0.40367    0.51859    1.000
    H16      H        0.92633    0.40477    0.53097    1.000
    C35      C        0.99023    0.42037    0.51064    1.000
    H17      H        0.02983    0.43017    0.51737    1.000
    C36      C        0.99243    0.42187    0.49274    1.000
    H18      H        0.03483    0.43517    0.48697    1.000
    Ag7      Ag       0.25956    0.69199    0.00547    1.000
    Ag8      Ag       0.30724    0.73899    0.85749    1.000
    Ca4      Ca       0.13250    0.76304    0.90621    1.000
    S7       S        0.24186    0.70043    0.96130    1.000
    S8       S        0.20949    0.57420    0.01944    1.000
    N7       N        0.18450    0.71870    0.99093    1.000
    N8       N        0.28070    0.81550    0.84314    1.000
    O13      O        0.10840    0.68970    0.93484    1.000
    O14      O        0.17400    0.80280    0.93689    1.000
    O15      O        0.10620    0.78080    0.87767    1.000
    O16      O        0.01400    0.79350    0.87929    1.000
    C37      C        0.18470    0.72010    0.97354    1.000
    C38      C        0.14060    0.73870    0.96350    1.000
    C39      C        0.09490    0.75410    0.97324    1.000
    H19      H        0.06410    0.76500    0.96740    1.000
    C40      C        0.09670    0.75270    0.99155    1.000
    H20      H        0.06810    0.76420    0.99820    1.000
    C41      C        0.14120    0.73410    0.99986    1.000
    H21      H        0.14110    0.73230    0.01220    1.000
    C42      C        0.14060    0.74370    0.94375    1.000
    C43      C        0.06550    0.79540    0.87096    1.000
    C44      C        0.07070    0.80530    0.85070    1.000
    C45      C        0.05240    0.85040    0.84114    1.000
    C46      C        0.26300    0.85720    0.85192    1.000
    H22      H        0.26190    0.85490    0.86430    1.000
    C47      C        0.24630    0.90320    0.84397    1.000
    H23      H        0.23650    0.93300    0.85070    1.000
    C48      C        0.24480    0.90390    0.82607    1.000
    H24      H        0.23150    0.93300    0.82030    1.000
    Ag9      Ag       0.92623    0.02532    0.33880    1.000
    Ag10     Ag       0.97391    0.07232    0.19083    1.000
    Ca5      Ca       0.79917    0.09637    0.23954    1.000
    S9       S        0.90853    0.03376    0.29463    1.000
    S10      S        0.87616    0.90753    0.35277    1.000
    N9       N        0.85117    0.05203    0.32426    1.000
    N10      N        0.94737    0.14883    0.17647    1.000
    O17      O        0.77507    0.02303    0.26817    1.000
    O18      O        0.84067    0.13613    0.27022    1.000
    O19      O        0.77287    0.11413    0.21100    1.000
    O20      O        0.68067    0.12683    0.21262    1.000
    C49      C        0.85137    0.05343    0.30687    1.000
    C50      C        0.80727    0.07203    0.29683    1.000
    C51      C        0.76157    0.08743    0.30657    1.000
    H25      H        0.73077    0.09833    0.30073    1.000
    C52      C        0.76337    0.08603    0.32488    1.000
    H26      H        0.73477    0.09753    0.33153    1.000
    C53      C        0.80787    0.06743    0.33319    1.000
    H27      H        0.80777    0.06563    0.34553    1.000
    C54      C        0.80727    0.07703    0.27708    1.000
    C55      C        0.73217    0.12873    0.20429    1.000
    C56      C        0.73737    0.13863    0.18403    1.000
    C57      C        0.71907    0.18373    0.17447    1.000
    C58      C        0.92967    0.19053    0.18525    1.000
    H28      H        0.92857    0.18823    0.19763    1.000
    C59      C        0.91297    0.23653    0.17730    1.000
    H29      H        0.90317    0.26633    0.18403    1.000
    C60      C        0.91147    0.23723    0.15940    1.000
    H30      H        0.89817    0.26633    0.15363    1.000
    Ag11     Ag       0.59289    0.35866    0.67213    1.000
    Ag12     Ag       0.64057    0.40566    0.52416    1.000
    Ca6      Ca       0.46583    0.42971    0.57288    1.000
    S11      S        0.57519    0.36710    0.62797    1.000
    S12      S        0.54282    0.24087    0.68611    1.000
    N11      N        0.51783    0.38537    0.65760    1.000
    N12      N        0.61403    0.48217    0.50981    1.000
    O21      O        0.44173    0.35637    0.60151    1.000
    O22      O        0.50733    0.46947    0.60356    1.000
    O23      O        0.43953    0.44747    0.54434    1.000
    O24      O        0.34733    0.46017    0.54596    1.000
    C61      C        0.51803    0.38677    0.64021    1.000
    C62      C        0.47393    0.40537    0.63017    1.000
    C63      C        0.42823    0.42077    0.63991    1.000
    H31      H        0.39743    0.43167    0.63407    1.000
    C64      C        0.43003    0.41937    0.65822    1.000
    H32      H        0.40143    0.43087    0.66487    1.000
    C65      C        0.47453    0.40077    0.66653    1.000
    H33      H        0.47443    0.39897    0.67887    1.000
    C66      C        0.47393    0.41037    0.61042    1.000
    C67      C        0.39883    0.46207    0.53763    1.000
    C68      C        0.40403    0.47197    0.51737    1.000
    C69      C        0.38573    0.51707    0.50781    1.000
    C70      C        0.59633    0.52387    0.51859    1.000
    H34      H        0.59523    0.52157    0.53097    1.000
    C71      C        0.57963    0.56987    0.51064    1.000
    H35      H        0.56983    0.59967    0.51737    1.000
    C72      C        0.57813    0.57057    0.49274    1.000
    H36      H        0.56483    0.59967    0.48697    1.000
    Ag13     Ag       0.30801    0.56757    0.00547    1.000
    Ag14     Ag       0.26101    0.56825    0.85749    1.000
    Ca7      Ca       0.23696    0.36946    0.90621    1.000
    S13      S        0.29957    0.54143    0.96130    1.000
    S14      S        0.42580    0.63529    0.01944    1.000
    N13      N        0.28130    0.46580    0.99093    1.000
    N14      N        0.18450    0.46520    0.84314    1.000
    O25      O        0.31030    0.41870    0.93484    1.000
    O26      O        0.19720    0.37120    0.93689    1.000
    O27      O        0.21920    0.32540    0.87767    1.000
    O28      O        0.20650    0.22050    0.87929    1.000
    C73      C        0.27990    0.46460    0.97354    1.000
    C74      C        0.26130    0.40190    0.96350    1.000
    C75      C        0.24590    0.34080    0.97324    1.000
    H37      H        0.23500    0.29910    0.96740    1.000
    C76      C        0.24730    0.34400    0.99155    1.000
    H38      H        0.23580    0.30390    0.99820    1.000
    C77      C        0.26590    0.40710    0.99986    1.000
    H39      H        0.26770    0.40880    0.01220    1.000
    C78      C        0.25630    0.39690    0.94375    1.000
    C79      C        0.20460    0.27010    0.87096    1.000
    C80      C        0.19470    0.26540    0.85070    1.000
    C81      C        0.14960    0.20200    0.84114    1.000
    C82      C        0.14280    0.40580    0.85192    1.000
    H40      H        0.14510    0.40700    0.86430    1.000
    C83      C        0.09680    0.34310    0.84397    1.000
    H41      H        0.06700    0.30350    0.85070    1.000
    C84      C        0.09610    0.34090    0.82607    1.000
    H42      H        0.06700    0.29850    0.82030    1.000
    Ag15     Ag       0.97468    0.90090    0.33880    1.000
    Ag16     Ag       0.92768    0.90158    0.19083    1.000
    Ca8      Ca       0.90363    0.70279    0.23954    1.000
    S15      S        0.96624    0.87476    0.29463    1.000
    S16      S        0.09247    0.96862    0.35277    1.000
    N15      N        0.94797    0.79913    0.32426    1.000
    N16      N        0.85117    0.79853    0.17647    1.000
    O29      O        0.97697    0.75203    0.26817    1.000
    O30      O        0.86387    0.70453    0.27022    1.000
    O31      O        0.88587    0.65873    0.21100    1.000
    O32      O        0.87317    0.55383    0.21262    1.000
    C85      C        0.94657    0.79793    0.30687    1.000
    C86      C        0.92797    0.73523    0.29683    1.000
    C87      C        0.91257    0.67413    0.30657    1.000
    H43      H        0.90167    0.63243    0.30073    1.000
    C88      C        0.91397    0.67733    0.32488    1.000
    H44      H        0.90247    0.63723    0.33153    1.000
    C89      C        0.93257    0.74043    0.33319    1.000
    H45      H        0.93437    0.74213    0.34553    1.000
    C90      C        0.92297    0.73023    0.27708    1.000
    C91      C        0.87127    0.60343    0.20429    1.000
    C92      C        0.86137    0.59873    0.18403    1.000
    C93      C        0.81627    0.53533    0.17447    1.000
    C94      C        0.80947    0.73913    0.18525    1.000
    H46      H        0.81177    0.74033    0.19763    1.000
    C95      C        0.76347    0.67643    0.17730    1.000
    H47      H        0.73367    0.63683    0.18403    1.000
    C96      C        0.76277    0.67423    0.15940    1.000
    H48      H        0.73367    0.63183    0.15363    1.000
    Ag17     Ag       0.64134    0.23424    0.67213    1.000
    Ag18     Ag       0.59434    0.23492    0.52416    1.000
    Ca9      Ca       0.57029    0.03613    0.57288    1.000
    S17      S        0.63290    0.20810    0.62797    1.000
    S18      S        0.75913    0.30196    0.68611    1.000
    N17      N        0.61463    0.13247    0.65760    1.000
    N18      N        0.51783    0.13187    0.50981    1.000
    O33      O        0.64363    0.08537    0.60151    1.000
    O34      O        0.53053    0.03787    0.60356    1.000
    O35      O        0.55253    0.99207    0.54434    1.000
    O36      O        0.53983    0.88717    0.54596    1.000
    C97      C        0.61323    0.13127    0.64021    1.000
    C98      C        0.59463    0.06857    0.63017    1.000
    C99      C        0.57923    0.00747    0.63991    1.000
    H49      H        0.56833    0.96577    0.63407    1.000
    C100     C        0.58063    0.01067    0.65822    1.000
    H50      H        0.56913    0.97057    0.66487    1.000
    C101     C        0.59923    0.07377    0.66653    1.000
    H51      H        0.60103    0.07547    0.67887    1.000
    C102     C        0.58963    0.06357    0.61042    1.000
    C103     C        0.53793    0.93677    0.53763    1.000
    C104     C        0.52803    0.93207    0.51737    1.000
    C105     C        0.48293    0.86867    0.50781    1.000
    C106     C        0.47613    0.07247    0.51859    1.000
    H52      H        0.47843    0.07367    0.53097    1.000
    C107     C        0.43013    0.00977    0.51064    1.000
    H53      H        0.40033    0.97017    0.51737    1.000
    C108     C        0.42943    0.00757    0.49274    1.000
    H54      H        0.40033    0.96517    0.48697    1.000
    Ag19     Ag       0.74044    0.43243    0.49453    1.000
    Ag20     Ag       0.69276    0.43175    0.64251    1.000
    Ca10     Ca       0.86750    0.63054    0.59379    1.000
    S19      S        0.75814    0.45857    0.53870    1.000
    S20      S        0.79051    0.36471    0.48056    1.000
    N19      N        0.81550    0.53420    0.50907    1.000
    N20      N        0.71930    0.53480    0.65686    1.000
    O37      O        0.89160    0.58130    0.56516    1.000
    O38      O        0.82600    0.62880    0.56311    1.000
    O39      O        0.89380    0.67460    0.62233    1.000
    O40      O        0.98600    0.77950    0.62071    1.000
    C109     C        0.81530    0.53540    0.52646    1.000
    C110     C        0.85940    0.59810    0.53650    1.000
    C111     C        0.90510    0.65920    0.52676    1.000
    H55      H        0.93590    0.70090    0.53260    1.000
    C112     C        0.90330    0.65600    0.50845    1.000
    H56      H        0.93190    0.69610    0.50180    1.000
    C113     C        0.85880    0.59290    0.50014    1.000
    H57      H        0.85890    0.59120    0.48780    1.000
    C114     C        0.85940    0.60310    0.55625    1.000
    C115     C        0.93450    0.72990    0.62904    1.000
    C116     C        0.92930    0.73460    0.64930    1.000
    C117     C        0.94760    0.79800    0.65886    1.000
    C118     C        0.73700    0.59420    0.64808    1.000
    H58      H        0.73810    0.59300    0.63570    1.000
    C119     C        0.75370    0.65690    0.65603    1.000
    H59      H        0.76350    0.69650    0.64930    1.000
    C120     C        0.75520    0.65910    0.67393    1.000
    H60      H        0.76850    0.70150    0.67970    1.000
    Ag21     Ag       0.40711    0.76576    0.82787    1.000
    Ag22     Ag       0.35943    0.76508    0.97584    1.000
    Ca11     Ca       0.53417    0.96387    0.92712    1.000
    S21      S        0.42481    0.79190    0.87203    1.000
    S22      S        0.45718    0.69804    0.81389    1.000
    N21      N        0.48217    0.86753    0.84240    1.000
    N22      N        0.38597    0.86813    0.99019    1.000
    O41      O        0.55827    0.91463    0.89849    1.000
    O42      O        0.49267    0.96213    0.89644    1.000
    O43      O        0.56047    0.00793    0.95566    1.000
    O44      O        0.65267    0.11283    0.95404    1.000
    C121     C        0.48197    0.86873    0.85979    1.000
    C122     C        0.52607    0.93143    0.86983    1.000
    C123     C        0.57177    0.99253    0.86009    1.000
    H61      H        0.60257    0.03423    0.86593    1.000
    C124     C        0.56997    0.98933    0.84178    1.000
    H62      H        0.59857    0.02943    0.83513    1.000
    C125     C        0.52547    0.92623    0.83347    1.000
    H63      H        0.52557    0.92453    0.82113    1.000
    C126     C        0.52607    0.93643    0.88958    1.000
    C127     C        0.60117    0.06323    0.96237    1.000
    C128     C        0.59597    0.06793    0.98263    1.000
    C129     C        0.61427    0.13133    0.99219    1.000
    C130     C        0.40367    0.92753    0.98141    1.000
    H64      H        0.40477    0.92633    0.96903    1.000
    C131     C        0.42037    0.99023    0.98936    1.000
    H65      H        0.43017    0.02983    0.98263    1.000
    C132     C        0.42187    0.99243    0.00726    1.000
    H66      H        0.43517    0.03483    0.01303    1.000
    Ag23     Ag       0.07377    0.09910    0.16120    1.000
    Ag24     Ag       0.02609    0.09842    0.30917    1.000
    Ca12     Ca       0.20083    0.29721    0.26046    1.000
    S23      S        0.09147    0.12524    0.20537    1.000
    S24      S        0.12384    0.03138    0.14723    1.000
    N23      N        0.14883    0.20087    0.17574    1.000
    N24      N        0.05263    0.20147    0.32353    1.000
    O45      O        0.22493    0.24797    0.23183    1.000
    O46      O        0.15933    0.29547    0.22978    1.000
    O47      O        0.22713    0.34127    0.28900    1.000
    O48      O        0.31933    0.44617    0.28738    1.000
    C133     C        0.14863    0.20207    0.19313    1.000
    C134     C        0.19273    0.26477    0.20317    1.000
    C135     C        0.23843    0.32587    0.19343    1.000
    H67      H        0.26923    0.36757    0.19927    1.000
    C136     C        0.23663    0.32267    0.17512    1.000
    H68      H        0.26523    0.36277    0.16847    1.000
    C137     C        0.19213    0.25957    0.16681    1.000
    H69      H        0.19223    0.25787    0.15447    1.000
    C138     C        0.19273    0.26977    0.22292    1.000
    C139     C        0.26783    0.39657    0.29571    1.000
    C140     C        0.26263    0.40127    0.31597    1.000
    C141     C        0.28093    0.46467    0.32553    1.000
    C142     C        0.07033    0.26087    0.31475    1.000
    H70      H        0.07143    0.25967    0.30237    1.000
    C143     C        0.08703    0.32357    0.32270    1.000
    H71      H        0.09683    0.36317    0.31597    1.000
    C144     C        0.08853    0.32577    0.34060    1.000
    H72      H        0.10183    0.36817    0.34637    1.000
    Ag25     Ag       0.69199    0.25956    0.49453    1.000
    Ag26     Ag       0.73899    0.30724    0.64251    1.000
    Ca13     Ca       0.76304    0.13250    0.59379    1.000
    S25      S        0.70043    0.24186    0.53870    1.000
    S26      S        0.57420    0.20949    0.48056    1.000
    N25      N        0.71870    0.18450    0.50907    1.000
    N26      N        0.81550    0.28070    0.65686    1.000
    O49      O        0.68970    0.10840    0.56516    1.000
    O50      O        0.80280    0.17400    0.56311    1.000
    O51      O        0.78080    0.10620    0.62233    1.000
    O52      O        0.79350    0.01400    0.62071    1.000
    C145     C        0.72010    0.18470    0.52646    1.000
    C146     C        0.73870    0.14060    0.53650    1.000
    C147     C        0.75410    0.09490    0.52676    1.000
    H73      H        0.76500    0.06410    0.53260    1.000
    C148     C        0.75270    0.09670    0.50845    1.000
    H74      H        0.76420    0.06810    0.50180    1.000
    C149     C        0.73410    0.14120    0.50014    1.000
    H75      H        0.73230    0.14110    0.48780    1.000
    C150     C        0.74370    0.14060    0.55625    1.000
    C151     C        0.79540    0.06550    0.62904    1.000
    C152     C        0.80530    0.07070    0.64930    1.000
    C153     C        0.85040    0.05240    0.65886    1.000
    C154     C        0.85720    0.26300    0.64808    1.000
    H76      H        0.85490    0.26190    0.63570    1.000
    C155     C        0.90320    0.24630    0.65603    1.000
    H77      H        0.93300    0.23650    0.64930    1.000
    C156     C        0.90390    0.24480    0.67393    1.000
    H78      H        0.93300    0.23150    0.67970    1.000
    Ag27     Ag       0.35866    0.59289    0.82787    1.000
    Ag28     Ag       0.40566    0.64057    0.97584    1.000
    Ca14     Ca       0.42971    0.46583    0.92712    1.000
    S27      S        0.36710    0.57519    0.87203    1.000
    S28      S        0.24087    0.54282    0.81389    1.000
    N27      N        0.38537    0.51783    0.84240    1.000
    N28      N        0.48217    0.61403    0.99019    1.000
    O53      O        0.35637    0.44173    0.89849    1.000
    O54      O        0.46947    0.50733    0.89644    1.000
    O55      O        0.44747    0.43953    0.95566    1.000
    O56      O        0.46017    0.34733    0.95404    1.000
    C157     C        0.38677    0.51803    0.85979    1.000
    C158     C        0.40537    0.47393    0.86983    1.000
    C159     C        0.42077    0.42823    0.86009    1.000
    H79      H        0.43167    0.39743    0.86593    1.000
    C160     C        0.41937    0.43003    0.84178    1.000
    H80      H        0.43087    0.40143    0.83513    1.000
    C161     C        0.40077    0.47453    0.83347    1.000
    H81      H        0.39897    0.47443    0.82113    1.000
    C162     C        0.41037    0.47393    0.88958    1.000
    C163     C        0.46207    0.39883    0.96237    1.000
    C164     C        0.47197    0.40403    0.98263    1.000
    C165     C        0.51707    0.38573    0.99219    1.000
    C166     C        0.52387    0.59633    0.98141    1.000
    H82      H        0.52157    0.59523    0.96903    1.000
    C167     C        0.56987    0.57963    0.98936    1.000
    H83      H        0.59967    0.56983    0.98263    1.000
    C168     C        0.57057    0.57813    0.00726    1.000
    H84      H        0.59967    0.56483    0.01303    1.000
    Ag29     Ag       0.02532    0.92623    0.16120    1.000
    Ag30     Ag       0.07232    0.97391    0.30917    1.000
    Ca15     Ca       0.09637    0.79917    0.26046    1.000
    S29      S        0.03376    0.90853    0.20537    1.000
    S30      S        0.90753    0.87616    0.14723    1.000
    N29      N        0.05203    0.85117    0.17574    1.000
    N30      N        0.14883    0.94737    0.32353    1.000
    O57      O        0.02303    0.77507    0.23183    1.000
    O58      O        0.13613    0.84067    0.22978    1.000
    O59      O        0.11413    0.77287    0.28900    1.000
    O60      O        0.12683    0.68067    0.28738    1.000
    C169     C        0.05343    0.85137    0.19313    1.000
    C170     C        0.07203    0.80727    0.20317    1.000
    C171     C        0.08743    0.76157    0.19343    1.000
    H85      H        0.09833    0.73077    0.19927    1.000
    C172     C        0.08603    0.76337    0.17512    1.000
    H86      H        0.09753    0.73477    0.16847    1.000
    C173     C        0.06743    0.80787    0.16681    1.000
    H87      H        0.06563    0.80777    0.15447    1.000
    C174     C        0.07703    0.80727    0.22292    1.000
    C175     C        0.12873    0.73217    0.29571    1.000
    C176     C        0.13863    0.73737    0.31597    1.000
    C177     C        0.18373    0.71907    0.32553    1.000
    C178     C        0.19053    0.92967    0.31475    1.000
    H88      H        0.18823    0.92857    0.30237    1.000
    C179     C        0.23653    0.91297    0.32270    1.000
    H89      H        0.26633    0.90317    0.31597    1.000
    C180     C        0.23723    0.91147    0.34060    1.000
    H90      H        0.26633    0.89817    0.34637    1.000
    Ag31     Ag       0.56757    0.30801    0.49453    1.000
    Ag32     Ag       0.56825    0.26101    0.64251    1.000
    Ca16     Ca       0.36946    0.23696    0.59379    1.000
    S31      S        0.54143    0.29957    0.53870    1.000
    S32      S        0.63529    0.42580    0.48056    1.000
    N31      N        0.46580    0.28130    0.50907    1.000
    N32      N        0.46520    0.18450    0.65686    1.000
    O61      O        0.41870    0.31030    0.56516    1.000
    O62      O        0.37120    0.19720    0.56311    1.000
    O63      O        0.32540    0.21920    0.62233    1.000
    O64      O        0.22050    0.20650    0.62071    1.000
    C181     C        0.46460    0.27990    0.52646    1.000
    C182     C        0.40190    0.26130    0.53650    1.000
    C183     C        0.34080    0.24590    0.52676    1.000
    H91      H        0.29910    0.23500    0.53260    1.000
    C184     C        0.34400    0.24730    0.50845    1.000
    H92      H        0.30390    0.23580    0.50180    1.000
    C185     C        0.40710    0.26590    0.50014    1.000
    H93      H        0.40880    0.26770    0.48780    1.000
    C186     C        0.39690    0.25630    0.55625    1.000
    C187     C        0.27010    0.20460    0.62904    1.000
    C188     C        0.26540    0.19470    0.64930    1.000
    C189     C        0.20200    0.14960    0.65886    1.000
    C190     C        0.40580    0.14280    0.64808    1.000
    H94      H        0.40700    0.14510    0.63570    1.000
    C191     C        0.34310    0.09680    0.65603    1.000
    H95      H        0.30350    0.06700    0.64930    1.000
    C192     C        0.34090    0.09610    0.67393    1.000
    H96      H        0.29850    0.06700    0.67970    1.000
    Ag33     Ag       0.23424    0.64134    0.82787    1.000
    Ag34     Ag       0.23492    0.59434    0.97584    1.000
    Ca17     Ca       0.03613    0.57029    0.92712    1.000
    S33      S        0.20810    0.63290    0.87203    1.000
    S34      S        0.30196    0.75913    0.81389    1.000
    N33      N        0.13247    0.61463    0.84240    1.000
    N34      N        0.13187    0.51783    0.99019    1.000
    O65      O        0.08537    0.64363    0.89849    1.000
    O66      O        0.03787    0.53053    0.89644    1.000
    O67      O        0.99207    0.55253    0.95566    1.000
    O68      O        0.88717    0.53983    0.95404    1.000
    C193     C        0.13127    0.61323    0.85979    1.000
    C194     C        0.06857    0.59463    0.86983    1.000
    C195     C        0.00747    0.57923    0.86009    1.000
    H97      H        0.96577    0.56833    0.86593    1.000
    C196     C        0.01067    0.58063    0.84178    1.000
    H98      H        0.97057    0.56913    0.83513    1.000
    C197     C        0.07377    0.59923    0.83347    1.000
    H99      H        0.07547    0.60103    0.82113    1.000
    C198     C        0.06357    0.58963    0.88958    1.000
    C199     C        0.93677    0.53793    0.96237    1.000
    C200     C        0.93207    0.52803    0.98263    1.000
    C201     C        0.86867    0.48293    0.99219    1.000
    C202     C        0.07247    0.47613    0.98141    1.000
    H100     H        0.07367    0.47843    0.96903    1.000
    C203     C        0.00977    0.43013    0.98936    1.000
    H101     H        0.97017    0.40033    0.98263    1.000
    C204     C        0.00757    0.42943    0.00726    1.000
    H102     H        0.96517    0.40033    0.01303    1.000
    Ag35     Ag       0.90090    0.97468    0.16120    1.000
    Ag36     Ag       0.90158    0.92768    0.30917    1.000
    Ca18     Ca       0.70279    0.90363    0.26046    1.000
    S35      S        0.87476    0.96624    0.20537    1.000
    S36      S        0.96862    0.09247    0.14723    1.000
    N35      N        0.79913    0.94797    0.17574    1.000
    N36      N        0.79853    0.85117    0.32353    1.000
    O69      O        0.75203    0.97697    0.23183    1.000
    O70      O        0.70453    0.86387    0.22978    1.000
    O71      O        0.65873    0.88587    0.28900    1.000
    O72      O        0.55383    0.87317    0.28738    1.000
    C205     C        0.79793    0.94657    0.19313    1.000
    C206     C        0.73523    0.92797    0.20317    1.000
    C207     C        0.67413    0.91257    0.19343    1.000
    H103     H        0.63243    0.90167    0.19927    1.000
    C208     C        0.67733    0.91397    0.17512    1.000
    H104     H        0.63723    0.90247    0.16847    1.000
    C209     C        0.74043    0.93257    0.16681    1.000
    H105     H        0.74213    0.93437    0.15447    1.000
    C210     C        0.73023    0.92297    0.22292    1.000
    C211     C        0.60343    0.87127    0.29571    1.000
    C212     C        0.59873    0.86137    0.31597    1.000
    C213     C        0.53533    0.81627    0.32553    1.000
    C214     C        0.73913    0.80947    0.31475    1.000
    H106     H        0.74033    0.81177    0.30237    1.000
    C215     C        0.67643    0.76347    0.32270    1.000
    H107     H        0.63683    0.73367    0.31597    1.000
    C216     C        0.67423    0.76277    0.34060    1.000
    H108     H        0.63183    0.73367    0.34637    1.000
    Ag37     Ag       0.56757    0.25956    0.99453    1.000
    Ag38     Ag       0.56825    0.30724    0.14251    1.000
    Ca19     Ca       0.36946    0.13250    0.09379    1.000
    S37      S        0.54143    0.24186    0.03870    1.000
    S38      S        0.63529    0.20949    0.98056    1.000
    N37      N        0.46580    0.18450    0.00907    1.000
    N38      N        0.46520    0.28070    0.15686    1.000
    O73      O        0.41870    0.10840    0.06516    1.000
    O74      O        0.37120    0.17400    0.06311    1.000
    O75      O        0.32540    0.10620    0.12233    1.000
    O76      O        0.22050    0.01400    0.12071    1.000
    C217     C        0.46460    0.18470    0.02646    1.000
    C218     C        0.40190    0.14060    0.03650    1.000
    C219     C        0.34080    0.09490    0.02676    1.000
    H109     H        0.29910    0.06410    0.03260    1.000
    C220     C        0.34400    0.09670    0.00845    1.000
    H110     H        0.30390    0.06810    0.00180    1.000
    C221     C        0.40710    0.14120    0.00014    1.000
    H111     H        0.40880    0.14110    0.98780    1.000
    C222     C        0.39690    0.14060    0.05625    1.000
    C223     C        0.27010    0.06550    0.12904    1.000
    C224     C        0.26540    0.07070    0.14930    1.000
    C225     C        0.20200    0.05240    0.15886    1.000
    C226     C        0.40580    0.26300    0.14808    1.000
    H112     H        0.40700    0.26190    0.13570    1.000
    C227     C        0.34310    0.24630    0.15603    1.000
    H113     H        0.30350    0.23650    0.14930    1.000
    C228     C        0.34090    0.24480    0.17393    1.000
    H114     H        0.29850    0.23150    0.17970    1.000
    Ag39     Ag       0.23424    0.59289    0.32787    1.000
    Ag40     Ag       0.23492    0.64057    0.47584    1.000
    Ca20     Ca       0.03613    0.46583    0.42712    1.000
    S39      S        0.20810    0.57519    0.37203    1.000
    S40      S        0.30196    0.54282    0.31389    1.000
    N39      N        0.13247    0.51783    0.34240    1.000
    N40      N        0.13187    0.61403    0.49019    1.000
    O77      O        0.08537    0.44173    0.39849    1.000
    O78      O        0.03787    0.50733    0.39644    1.000
    O79      O        0.99207    0.43953    0.45566    1.000
    O80      O        0.88717    0.34733    0.45404    1.000
    C229     C        0.13127    0.51803    0.35979    1.000
    C230     C        0.06857    0.47393    0.36983    1.000
    C231     C        0.00747    0.42823    0.36009    1.000
    H115     H        0.96577    0.39743    0.36593    1.000
    C232     C        0.01067    0.43003    0.34178    1.000
    H116     H        0.97057    0.40143    0.33513    1.000
    C233     C        0.07377    0.47453    0.33347    1.000
    H117     H        0.07547    0.47443    0.32113    1.000
    C234     C        0.06357    0.47393    0.38958    1.000
    C235     C        0.93677    0.39883    0.46237    1.000
    C236     C        0.93207    0.40403    0.48263    1.000
    C237     C        0.86867    0.38573    0.49219    1.000
    C238     C        0.07247    0.59633    0.48141    1.000
    H118     H        0.07367    0.59523    0.46903    1.000
    C239     C        0.00977    0.57963    0.48936    1.000
    H119     H        0.97017    0.56983    0.48263    1.000
    C240     C        0.00757    0.57813    0.50726    1.000
    H120     H        0.96517    0.56483    0.51303    1.000
    Ag41     Ag       0.90090    0.92623    0.66120    1.000
    Ag42     Ag       0.90158    0.97391    0.80917    1.000
    Ca21     Ca       0.70279    0.79917    0.76046    1.000
    S41      S        0.87476    0.90853    0.70537    1.000
    S42      S        0.96862    0.87616    0.64723    1.000
    N41      N        0.79913    0.85117    0.67574    1.000
    N42      N        0.79853    0.94737    0.82353    1.000
    O81      O        0.75203    0.77507    0.73183    1.000
    O82      O        0.70453    0.84067    0.72978    1.000
    O83      O        0.65873    0.77287    0.78900    1.000
    O84      O        0.55383    0.68067    0.78738    1.000
    C241     C        0.79793    0.85137    0.69313    1.000
    C242     C        0.73523    0.80727    0.70317    1.000
    C243     C        0.67413    0.76157    0.69343    1.000
    H121     H        0.63243    0.73077    0.69927    1.000
    C244     C        0.67733    0.76337    0.67512    1.000
    H122     H        0.63723    0.73477    0.66847    1.000
    C245     C        0.74043    0.80787    0.66681    1.000
    H123     H        0.74213    0.80777    0.65447    1.000
    C246     C        0.73023    0.80727    0.72292    1.000
    C247     C        0.60343    0.73217    0.79571    1.000
    C248     C        0.59873    0.73737    0.81597    1.000
    C249     C        0.53533    0.71907    0.82553    1.000
    C250     C        0.73913    0.92967    0.81475    1.000
    H124     H        0.74033    0.92857    0.80237    1.000
    C251     C        0.67643    0.91297    0.82270    1.000
    H125     H        0.63683    0.90317    0.81597    1.000
    C252     C        0.67423    0.91147    0.84060    1.000
    H126     H        0.63183    0.89817    0.84637    1.000
    Ag43     Ag       0.74044    0.30801    0.99453    1.000
    Ag44     Ag       0.69276    0.26101    0.14251    1.000
    Ca22     Ca       0.86750    0.23696    0.09379    1.000
    S43      S        0.75814    0.29957    0.03870    1.000
    S44      S        0.79051    0.42580    0.98056    1.000
    N43      N        0.81550    0.28130    0.00907    1.000
    N44      N        0.71930    0.18450    0.15686    1.000
    O85      O        0.89160    0.31030    0.06516    1.000
    O86      O        0.82600    0.19720    0.06311    1.000
    O87      O        0.89380    0.21920    0.12233    1.000
    O88      O        0.98600    0.20650    0.12071    1.000
    C253     C        0.81530    0.27990    0.02646    1.000
    C254     C        0.85940    0.26130    0.03650    1.000
    C255     C        0.90510    0.24590    0.02676    1.000
    H127     H        0.93590    0.23500    0.03260    1.000
    C256     C        0.90330    0.24730    0.00845    1.000
    H128     H        0.93190    0.23580    0.00180    1.000
    C257     C        0.85880    0.26590    0.00014    1.000
    H129     H        0.85890    0.26770    0.98780    1.000
    C258     C        0.85940    0.25630    0.05625    1.000
    C259     C        0.93450    0.20460    0.12904    1.000
    C260     C        0.92930    0.19470    0.14930    1.000
    C261     C        0.94760    0.14960    0.15886    1.000
    C262     C        0.73700    0.14280    0.14808    1.000
    H130     H        0.73810    0.14510    0.13570    1.000
    C263     C        0.75370    0.09680    0.15603    1.000
    H131     H        0.76350    0.06700    0.14930    1.000
    C264     C        0.75520    0.09610    0.17393    1.000
    H132     H        0.76850    0.06700    0.17970    1.000
    Ag45     Ag       0.40711    0.64134    0.32787    1.000
    Ag46     Ag       0.35943    0.59434    0.47584    1.000
    Ca23     Ca       0.53417    0.57029    0.42712    1.000
    S45      S        0.42481    0.63290    0.37203    1.000
    S46      S        0.45718    0.75913    0.31389    1.000
    N45      N        0.48217    0.61463    0.34240    1.000
    N46      N        0.38597    0.51783    0.49019    1.000
    O89      O        0.55827    0.64363    0.39849    1.000
    O90      O        0.49267    0.53053    0.39644    1.000
    O91      O        0.56047    0.55253    0.45566    1.000
    O92      O        0.65267    0.53983    0.45404    1.000
    C265     C        0.48197    0.61323    0.35979    1.000
    C266     C        0.52607    0.59463    0.36983    1.000
    C267     C        0.57177    0.57923    0.36009    1.000
    H133     H        0.60257    0.56833    0.36593    1.000
    C268     C        0.56997    0.58063    0.34178    1.000
    H134     H        0.59857    0.56913    0.33513    1.000
    C269     C        0.52547    0.59923    0.33347    1.000
    H135     H        0.52557    0.60103    0.32113    1.000
    C270     C        0.52607    0.58963    0.38958    1.000
    C271     C        0.60117    0.53793    0.46237    1.000
    C272     C        0.59597    0.52803    0.48263    1.000
    C273     C        0.61427    0.48293    0.49219    1.000
    C274     C        0.40367    0.47613    0.48141    1.000
    H136     H        0.40477    0.47843    0.46903    1.000
    C275     C        0.42037    0.43013    0.48936    1.000
    H137     H        0.43017    0.40033    0.48263    1.000
    C276     C        0.42187    0.42943    0.50726    1.000
    H138     H        0.43517    0.40033    0.51303    1.000
    Ag47     Ag       0.07377    0.97468    0.66120    1.000
    Ag48     Ag       0.02609    0.92768    0.80917    1.000
    Ca24     Ca       0.20083    0.90363    0.76046    1.000
    S47      S        0.09147    0.96624    0.70537    1.000
    S48      S        0.12384    0.09247    0.64723    1.000
    N47      N        0.14883    0.94797    0.67574    1.000
    N48      N        0.05263    0.85117    0.82353    1.000
    O93      O        0.22493    0.97697    0.73183    1.000
    O94      O        0.15933    0.86387    0.72978    1.000
    O95      O        0.22713    0.88587    0.78900    1.000
    O96      O        0.31933    0.87317    0.78738    1.000
    C277     C        0.14863    0.94657    0.69313    1.000
    C278     C        0.19273    0.92797    0.70317    1.000
    C279     C        0.23843    0.91257    0.69343    1.000
    H139     H        0.26923    0.90167    0.69927    1.000
    C280     C        0.23663    0.91397    0.67512    1.000
    H140     H        0.26523    0.90247    0.66847    1.000
    C281     C        0.19213    0.93257    0.66681    1.000
    H141     H        0.19223    0.93437    0.65447    1.000
    C282     C        0.19273    0.92297    0.72292    1.000
    C283     C        0.26783    0.87127    0.79571    1.000
    C284     C        0.26263    0.86137    0.81597    1.000
    C285     C        0.28093    0.81627    0.82553    1.000
    C286     C        0.07033    0.80947    0.81475    1.000
    H142     H        0.07143    0.81177    0.80237    1.000
    C287     C        0.08703    0.76347    0.82270    1.000
    H143     H        0.09683    0.73367    0.81597    1.000
    C288     C        0.08853    0.76277    0.84060    1.000
    H144     H        0.10183    0.73367    0.84637    1.000
    Ag49     Ag       0.69199    0.43243    0.99453    1.000
    Ag50     Ag       0.73899    0.43175    0.14251    1.000
    Ca25     Ca       0.76304    0.63054    0.09379    1.000
    S49      S        0.70043    0.45857    0.03870    1.000
    S50      S        0.57420    0.36471    0.98056    1.000
    N49      N        0.71870    0.53420    0.00907    1.000
    N50      N        0.81550    0.53480    0.15686    1.000
    O97      O        0.68970    0.58130    0.06516    1.000
    O98      O        0.80280    0.62880    0.06311    1.000
    O99      O        0.78080    0.67460    0.12233    1.000
    O100     O        0.79350    0.77950    0.12071    1.000
    C289     C        0.72010    0.53540    0.02646    1.000
    C290     C        0.73870    0.59810    0.03650    1.000
    C291     C        0.75410    0.65920    0.02676    1.000
    H145     H        0.76500    0.70090    0.03260    1.000
    C292     C        0.75270    0.65600    0.00845    1.000
    H146     H        0.76420    0.69610    0.00180    1.000
    C293     C        0.73410    0.59290    0.00014    1.000
    H147     H        0.73230    0.59120    0.98780    1.000
    C294     C        0.74370    0.60310    0.05625    1.000
    C295     C        0.79540    0.72990    0.12904    1.000
    C296     C        0.80530    0.73460    0.14930    1.000
    C297     C        0.85040    0.79800    0.15886    1.000
    C298     C        0.85720    0.59420    0.14808    1.000
    H148     H        0.85490    0.59300    0.13570    1.000
    C299     C        0.90320    0.65690    0.15603    1.000
    H149     H        0.93300    0.69650    0.14930    1.000
    C300     C        0.90390    0.65910    0.17393    1.000
    H150     H        0.93300    0.70150    0.17970    1.000
    Ag51     Ag       0.35866    0.76576    0.32787    1.000
    Ag52     Ag       0.40566    0.76508    0.47584    1.000
    Ca26     Ca       0.42971    0.96387    0.42712    1.000
    S51      S        0.36710    0.79190    0.37203    1.000
    S52      S        0.24087    0.69804    0.31389    1.000
    N51      N        0.38537    0.86753    0.34240    1.000
    N52      N        0.48217    0.86813    0.49019    1.000
    O101     O        0.35637    0.91463    0.39849    1.000
    O102     O        0.46947    0.96213    0.39644    1.000
    O103     O        0.44747    0.00793    0.45566    1.000
    O104     O        0.46017    0.11283    0.45404    1.000
    C301     C        0.38677    0.86873    0.35979    1.000
    C302     C        0.40537    0.93143    0.36983    1.000
    C303     C        0.42077    0.99253    0.36009    1.000
    H151     H        0.43167    0.03423    0.36593    1.000
    C304     C        0.41937    0.98933    0.34178    1.000
    H152     H        0.43087    0.02943    0.33513    1.000
    C305     C        0.40077    0.92623    0.33347    1.000
    H153     H        0.39897    0.92453    0.32113    1.000
    C306     C        0.41037    0.93643    0.38958    1.000
    C307     C        0.46207    0.06323    0.46237    1.000
    C308     C        0.47197    0.06793    0.48263    1.000
    C309     C        0.51707    0.13133    0.49219    1.000
    C310     C        0.52387    0.92753    0.48141    1.000
    H154     H        0.52157    0.92633    0.46903    1.000
    C311     C        0.56987    0.99023    0.48936    1.000
    H155     H        0.59967    0.02983    0.48263    1.000
    C312     C        0.57057    0.99243    0.50726    1.000
    H156     H        0.59967    0.03483    0.51303    1.000
    Ag53     Ag       0.02532    0.09910    0.66120    1.000
    Ag54     Ag       0.07232    0.09842    0.80917    1.000
    Ca27     Ca       0.09637    0.29721    0.76046    1.000
    S53      S        0.03376    0.12524    0.70537    1.000
    S54      S        0.90753    0.03138    0.64723    1.000
    N53      N        0.05203    0.20087    0.67574    1.000
    N54      N        0.14883    0.20147    0.82353    1.000
    O105     O        0.02303    0.24797    0.73183    1.000
    O106     O        0.13613    0.29547    0.72978    1.000
    O107     O        0.11413    0.34127    0.78900    1.000
    O108     O        0.12683    0.44617    0.78738    1.000
    C313     C        0.05343    0.20207    0.69313    1.000
    C314     C        0.07203    0.26477    0.70317    1.000
    C315     C        0.08743    0.32587    0.69343    1.000
    H157     H        0.09833    0.36757    0.69927    1.000
    C316     C        0.08603    0.32267    0.67512    1.000
    H158     H        0.09753    0.36277    0.66847    1.000
    C317     C        0.06743    0.25957    0.66681    1.000
    H159     H        0.06563    0.25787    0.65447    1.000
    C318     C        0.07703    0.26977    0.72292    1.000
    C319     C        0.12873    0.39657    0.79571    1.000
    C320     C        0.13863    0.40127    0.81597    1.000
    C321     C        0.18373    0.46467    0.82553    1.000
    C322     C        0.19053    0.26087    0.81475    1.000
    H160     H        0.18823    0.25967    0.80237    1.000
    C323     C        0.23653    0.32357    0.82270    1.000
    H161     H        0.26633    0.36317    0.81597    1.000
    C324     C        0.23723    0.32577    0.84060    1.000
    H162     H        0.26633    0.36817    0.84637    1.000
    Ag55     Ag       0.25956    0.56757    0.50547    1.000
    Ag56     Ag       0.30724    0.56825    0.35749    1.000
    Ca28     Ca       0.13250    0.36946    0.40621    1.000
    S55      S        0.24186    0.54143    0.46130    1.000
    S56      S        0.20949    0.63529    0.51944    1.000
    N55      N        0.18450    0.46580    0.49093    1.000
    N56      N        0.28070    0.46520    0.34314    1.000
    O109     O        0.10840    0.41870    0.43484    1.000
    O110     O        0.17400    0.37120    0.43689    1.000
    O111     O        0.10620    0.32540    0.37767    1.000
    O112     O        0.01400    0.22050    0.37929    1.000
    C325     C        0.18470    0.46460    0.47354    1.000
    C326     C        0.14060    0.40190    0.46350    1.000
    C327     C        0.09490    0.34080    0.47324    1.000
    H163     H        0.06410    0.29910    0.46740    1.000
    C328     C        0.09670    0.34400    0.49155    1.000
    H164     H        0.06810    0.30390    0.49820    1.000
    C329     C        0.14120    0.40710    0.49986    1.000
    H165     H        0.14110    0.40880    0.51220    1.000
    C330     C        0.14060    0.39690    0.44375    1.000
    C331     C        0.06550    0.27010    0.37096    1.000
    C332     C        0.07070    0.26540    0.35070    1.000
    C333     C        0.05240    0.20200    0.34114    1.000
    C334     C        0.26300    0.40580    0.35192    1.000
    H166     H        0.26190    0.40700    0.36430    1.000
    C335     C        0.24630    0.34310    0.34397    1.000
    H167     H        0.23650    0.30350    0.35070    1.000
    C336     C        0.24480    0.34090    0.32607    1.000
    H168     H        0.23150    0.29850    0.32030    1.000
    Ag57     Ag       0.92623    0.90090    0.83880    1.000
    Ag58     Ag       0.97391    0.90158    0.69083    1.000
    Ca29     Ca       0.79917    0.70279    0.73954    1.000
    S57      S        0.90853    0.87476    0.79463    1.000
    S58      S        0.87616    0.96862    0.85277    1.000
    N57      N        0.85117    0.79913    0.82426    1.000
    N58      N        0.94737    0.79853    0.67647    1.000
    O113     O        0.77507    0.75203    0.76817    1.000
    O114     O        0.84067    0.70453    0.77022    1.000
    O115     O        0.77287    0.65873    0.71100    1.000
    O116     O        0.68067    0.55383    0.71262    1.000
    C337     C        0.85137    0.79793    0.80687    1.000
    C338     C        0.80727    0.73523    0.79683    1.000
    C339     C        0.76157    0.67413    0.80657    1.000
    H169     H        0.73077    0.63243    0.80073    1.000
    C340     C        0.76337    0.67733    0.82488    1.000
    H170     H        0.73477    0.63723    0.83153    1.000
    C341     C        0.80787    0.74043    0.83319    1.000
    H171     H        0.80777    0.74213    0.84553    1.000
    C342     C        0.80727    0.73023    0.77708    1.000
    C343     C        0.73217    0.60343    0.70429    1.000
    C344     C        0.73737    0.59873    0.68403    1.000
    C345     C        0.71907    0.53533    0.67447    1.000
    C346     C        0.92967    0.73913    0.68525    1.000
    H172     H        0.92857    0.74033    0.69763    1.000
    C347     C        0.91297    0.67643    0.67730    1.000
    H173     H        0.90317    0.63683    0.68403    1.000
    C348     C        0.91147    0.67423    0.65940    1.000
    H174     H        0.89817    0.63183    0.65363    1.000
    Ag59     Ag       0.59289    0.23424    0.17213    1.000
    Ag60     Ag       0.64057    0.23492    0.02416    1.000
    Ca30     Ca       0.46583    0.03613    0.07288    1.000
    S59      S        0.57519    0.20810    0.12797    1.000
    S60      S        0.54282    0.30196    0.18611    1.000
    N59      N        0.51783    0.13247    0.15760    1.000
    N60      N        0.61403    0.13187    0.00981    1.000
    O117     O        0.44173    0.08537    0.10151    1.000
    O118     O        0.50733    0.03787    0.10356    1.000
    O119     O        0.43953    0.99207    0.04434    1.000
    O120     O        0.34733    0.88717    0.04596    1.000
    C349     C        0.51803    0.13127    0.14021    1.000
    C350     C        0.47393    0.06857    0.13017    1.000
    C351     C        0.42823    0.00747    0.13991    1.000
    H175     H        0.39743    0.96577    0.13407    1.000
    C352     C        0.43003    0.01067    0.15822    1.000
    H176     H        0.40143    0.97057    0.16487    1.000
    C353     C        0.47453    0.07377    0.16653    1.000
    H177     H        0.47443    0.07547    0.17887    1.000
    C354     C        0.47393    0.06357    0.11042    1.000
    C355     C        0.39883    0.93677    0.03763    1.000
    C356     C        0.40403    0.93207    0.01737    1.000
    C357     C        0.38573    0.86867    0.00781    1.000
    C358     C        0.59633    0.07247    0.01859    1.000
    H178     H        0.59523    0.07367    0.03097    1.000
    C359     C        0.57963    0.00977    0.01064    1.000
    H179     H        0.56983    0.97017    0.01737    1.000
    C360     C        0.57813    0.00757    0.99274    1.000
    H180     H        0.56483    0.96517    0.98697    1.000
    Ag61     Ag       0.30801    0.74044    0.50547    1.000
    Ag62     Ag       0.26101    0.69276    0.35749    1.000
    Ca31     Ca       0.23696    0.86750    0.40621    1.000
    S61      S        0.29957    0.75814    0.46130    1.000
    S62      S        0.42580    0.79051    0.51944    1.000
    N61      N        0.28130    0.81550    0.49093    1.000
    N62      N        0.18450    0.71930    0.34314    1.000
    O121     O        0.31030    0.89160    0.43484    1.000
    O122     O        0.19720    0.82600    0.43689    1.000
    O123     O        0.21920    0.89380    0.37767    1.000
    O124     O        0.20650    0.98600    0.37929    1.000
    C361     C        0.27990    0.81530    0.47354    1.000
    C362     C        0.26130    0.85940    0.46350    1.000
    C363     C        0.24590    0.90510    0.47324    1.000
    H181     H        0.23500    0.93590    0.46740    1.000
    C364     C        0.24730    0.90330    0.49155    1.000
    H182     H        0.23580    0.93190    0.49820    1.000
    C365     C        0.26590    0.85880    0.49986    1.000
    H183     H        0.26770    0.85890    0.51220    1.000
    C366     C        0.25630    0.85940    0.44375    1.000
    C367     C        0.20460    0.93450    0.37096    1.000
    C368     C        0.19470    0.92930    0.35070    1.000
    C369     C        0.14960    0.94760    0.34114    1.000
    C370     C        0.14280    0.73700    0.35192    1.000
    H184     H        0.14510    0.73810    0.36430    1.000
    C371     C        0.09680    0.75370    0.34397    1.000
    H185     H        0.06700    0.76350    0.35070    1.000
    C372     C        0.09610    0.75520    0.32607    1.000
    H186     H        0.06700    0.76850    0.32030    1.000
    Ag63     Ag       0.97468    0.07377    0.83880    1.000
    Ag64     Ag       0.92768    0.02609    0.69083    1.000
    Ca32     Ca       0.90363    0.20083    0.73954    1.000
    S63      S        0.96624    0.09147    0.79463    1.000
    S64      S        0.09247    0.12384    0.85277    1.000
    N63      N        0.94797    0.14883    0.82426    1.000
    N64      N        0.85117    0.05263    0.67647    1.000
    O125     O        0.97697    0.22493    0.76817    1.000
    O126     O        0.86387    0.15933    0.77022    1.000
    O127     O        0.88587    0.22713    0.71100    1.000
    O128     O        0.87317    0.31933    0.71262    1.000
    C373     C        0.94657    0.14863    0.80687    1.000
    C374     C        0.92797    0.19273    0.79683    1.000
    C375     C        0.91257    0.23843    0.80657    1.000
    H187     H        0.90167    0.26923    0.80073    1.000
    C376     C        0.91397    0.23663    0.82488    1.000
    H188     H        0.90247    0.26523    0.83153    1.000
    C377     C        0.93257    0.19213    0.83319    1.000
    H189     H        0.93437    0.19223    0.84553    1.000
    C378     C        0.92297    0.19273    0.77708    1.000
    C379     C        0.87127    0.26783    0.70429    1.000
    C380     C        0.86137    0.26263    0.68403    1.000
    C381     C        0.81627    0.28093    0.67447    1.000
    C382     C        0.80947    0.07033    0.68525    1.000
    H190     H        0.81177    0.07143    0.69763    1.000
    C383     C        0.76347    0.08703    0.67730    1.000
    H191     H        0.73367    0.09683    0.68403    1.000
    C384     C        0.76277    0.08853    0.65940    1.000
    H192     H        0.73367    0.10183    0.65363    1.000
    Ag65     Ag       0.64134    0.40711    0.17213    1.000
    Ag66     Ag       0.59434    0.35943    0.02416    1.000
    Ca33     Ca       0.57029    0.53417    0.07288    1.000
    S65      S        0.63290    0.42481    0.12797    1.000
    S66      S        0.75913    0.45718    0.18611    1.000
    N65      N        0.61463    0.48217    0.15760    1.000
    N66      N        0.51783    0.38597    0.00981    1.000
    O129     O        0.64363    0.55827    0.10151    1.000
    O130     O        0.53053    0.49267    0.10356    1.000
    O131     O        0.55253    0.56047    0.04434    1.000
    O132     O        0.53983    0.65267    0.04596    1.000
    C385     C        0.61323    0.48197    0.14021    1.000
    C386     C        0.59463    0.52607    0.13017    1.000
    C387     C        0.57923    0.57177    0.13991    1.000
    H193     H        0.56833    0.60257    0.13407    1.000
    C388     C        0.58063    0.56997    0.15822    1.000
    H194     H        0.56913    0.59857    0.16487    1.000
    C389     C        0.59923    0.52547    0.16653    1.000
    H195     H        0.60103    0.52557    0.17887    1.000
    C390     C        0.58963    0.52607    0.11042    1.000
    C391     C        0.53793    0.60117    0.03763    1.000
    C392     C        0.52803    0.59597    0.01737    1.000
    C393     C        0.48293    0.61427    0.00781    1.000
    C394     C        0.47613    0.40367    0.01859    1.000
    H196     H        0.47843    0.40477    0.03097    1.000
    C395     C        0.43013    0.42037    0.01064    1.000
    H197     H        0.40033    0.43017    0.01737    1.000
    C396     C        0.42943    0.42187    0.99274    1.000
    H198     H        0.40033    0.43517    0.98697    1.000
    Ag67     Ag       0.43243    0.69199    0.50547    1.000
    Ag68     Ag       0.43175    0.73899    0.35749    1.000
    Ca34     Ca       0.63054    0.76304    0.40621    1.000
    S67      S        0.45857    0.70043    0.46130    1.000
    S68      S        0.36471    0.57420    0.51944    1.000
    N67      N        0.53420    0.71870    0.49093    1.000
    N68      N        0.53480    0.81550    0.34314    1.000
    O133     O        0.58130    0.68970    0.43484    1.000
    O134     O        0.62880    0.80280    0.43689    1.000
    O135     O        0.67460    0.78080    0.37767    1.000
    O136     O        0.77950    0.79350    0.37929    1.000
    C397     C        0.53540    0.72010    0.47354    1.000
    C398     C        0.59810    0.73870    0.46350    1.000
    C399     C        0.65920    0.75410    0.47324    1.000
    H199     H        0.70090    0.76500    0.46740    1.000
    C400     C        0.65600    0.75270    0.49155    1.000
    H200     H        0.69610    0.76420    0.49820    1.000
    C401     C        0.59290    0.73410    0.49986    1.000
    H201     H        0.59120    0.73230    0.51220    1.000
    C402     C        0.60310    0.74370    0.44375    1.000
    C403     C        0.72990    0.79540    0.37096    1.000
    C404     C        0.73460    0.80530    0.35070    1.000
    C405     C        0.79800    0.85040    0.34114    1.000
    C406     C        0.59420    0.85720    0.35192    1.000
    H202     H        0.59300    0.85490    0.36430    1.000
    C407     C        0.65690    0.90320    0.34397    1.000
    H203     H        0.69650    0.93300    0.35070    1.000
    C408     C        0.65910    0.90390    0.32607    1.000
    H204     H        0.70150    0.93300    0.32030    1.000
    Ag69     Ag       0.09910    0.02532    0.83880    1.000
    Ag70     Ag       0.09842    0.07232    0.69083    1.000
    Ca35     Ca       0.29721    0.09637    0.73954    1.000
    S69      S        0.12524    0.03376    0.79463    1.000
    S70      S        0.03138    0.90753    0.85277    1.000
    N69      N        0.20087    0.05203    0.82426    1.000
    N70      N        0.20147    0.14883    0.67647    1.000
    O137     O        0.24797    0.02303    0.76817    1.000
    O138     O        0.29547    0.13613    0.77022    1.000
    O139     O        0.34127    0.11413    0.71100    1.000
    O140     O        0.44617    0.12683    0.71262    1.000
    C409     C        0.20207    0.05343    0.80687    1.000
    C410     C        0.26477    0.07203    0.79683    1.000
    C411     C        0.32587    0.08743    0.80657    1.000
    H205     H        0.36757    0.09833    0.80073    1.000
    C412     C        0.32267    0.08603    0.82488    1.000
    H206     H        0.36277    0.09753    0.83153    1.000
    C413     C        0.25957    0.06743    0.83319    1.000
    H207     H        0.25787    0.06563    0.84553    1.000
    C414     C        0.26977    0.07703    0.77708    1.000
    C415     C        0.39657    0.12873    0.70429    1.000
    C416     C        0.40127    0.13863    0.68403    1.000
    C417     C        0.46467    0.18373    0.67447    1.000
    C418     C        0.26087    0.19053    0.68525    1.000
    H208     H        0.25967    0.18823    0.69763    1.000
    C419     C        0.32357    0.23653    0.67730    1.000
    H209     H        0.36317    0.26633    0.68403    1.000
    C420     C        0.32577    0.23723    0.65940    1.000
    H210     H        0.36817    0.26633    0.65363    1.000
    Ag71     Ag       0.76576    0.35866    0.17213    1.000
    Ag72     Ag       0.76508    0.40566    0.02416    1.000
    Ca36     Ca       0.96387    0.42971    0.07288    1.000
    S71      S        0.79190    0.36710    0.12797    1.000
    S72      S        0.69804    0.24087    0.18611    1.000
    N71      N        0.86753    0.38537    0.15760    1.000
    N72      N        0.86813    0.48217    0.00981    1.000
    O141     O        0.91463    0.35637    0.10151    1.000
    O142     O        0.96213    0.46947    0.10356    1.000
    O143     O        0.00793    0.44747    0.04434    1.000
    O144     O        0.11283    0.46017    0.04596    1.000
    C421     C        0.86873    0.38677    0.14021    1.000
    C422     C        0.93143    0.40537    0.13017    1.000
    C423     C        0.99253    0.42077    0.13991    1.000
    H211     H        0.03423    0.43167    0.13407    1.000
    C424     C        0.98933    0.41937    0.15822    1.000
    H212     H        0.02943    0.43087    0.16487    1.000
    C425     C        0.92623    0.40077    0.16653    1.000
    H213     H        0.92453    0.39897    0.17887    1.000
    C426     C        0.93643    0.41037    0.11042    1.000
    C427     C        0.06323    0.46207    0.03763    1.000
    C428     C        0.06793    0.47197    0.01737    1.000
    C429     C        0.13133    0.51707    0.00781    1.000
    C430     C        0.92753    0.52387    0.01859    1.000
    H214     H        0.92633    0.52157    0.03097    1.000
    C431     C        0.99023    0.56987    0.01064    1.000
    H215     H        0.02983    0.59967    0.01737    1.000
    C432     C        0.99243    0.57057    0.99274    1.000
    H216     H        0.03483    0.59967    0.98697    1.000
