# CIF file generated by openbabel 3.1.0, see https://openbabel.org
data_I
_chemical_name_common 'image0'
_cell_length_a 26.323
_cell_length_b 14.696
_cell_length_c 26.63
_cell_angle_alpha 90
_cell_angle_beta 157.747
_cell_angle_gamma 90
_space_group_name_H-M_alt 'P 1'
_space_group_name_Hall 'P 1'
loop_
    _symmetry_equiv_pos_as_xyz
    x,y,z
loop_
    _atom_site_label
    _atom_site_type_symbol
    _atom_site_fract_x
    _atom_site_fract_y
    _atom_site_fract_z
    _atom_site_occupancy
    Co1      Co       0.40553    0.45311    0.47665    1.000
    O1       O        0.28130    0.40310    0.31180    1.000
    O2       O        0.13730    0.45170    0.23780    1.000
    O3       O        0.58380    0.42190    0.61220    1.000
    O4       O        0.64910    0.46180    0.74840    1.000
    N1       N        0.37290    0.37140    0.50720    1.000
    N2       N        0.06950    0.22650    0.96210    1.000
    N3       N        0.10960    0.08050    0.01150    1.000
    C1       C        0.16220    0.41820    0.21900    1.000
    C2       C        0.04990    0.39560    0.08040    1.000
    C3       C        0.91850    0.41700    0.97330    1.000
    H1       H        0.90040    0.44130    0.98830    1.000
    C4       C        0.81440    0.40230    0.84450    1.000
    C5       C        0.67330    0.43180    0.72830    1.000
    C6       C        0.84310    0.36660    0.82420    1.000
    H2       H        0.77320    0.35650    0.73780    1.000
    C7       C        0.97290    0.34520    0.92830    1.000
    C8       C        0.07530    0.36120    0.05690    1.000
    H3       H        0.16340    0.34790    0.12850    1.000
    C9       C        0.00410    0.31560    0.90440    1.000
    H4       H        0.92150    0.31320    0.80960    1.000
    H5       H        0.06220    0.36040    0.94190    1.000
    C10      C        0.17580    0.20360    0.02930    1.000
    H6       H        0.22210    0.24170    0.04990    1.000
    C11      C        0.19950    0.11480    0.05960    1.000
    H7       H        0.26760    0.08120    0.10670    1.000
    C12      C        0.03280    0.15180    0.95290    1.000
    H8       H        0.96190    0.14940    0.91080    1.000
    C13      C        0.31600    0.29000    0.45040    1.000
    H9       H        0.30890    0.26490    0.41190    1.000
    C14      C        0.26700    0.24110    0.44580    1.000
    H10      H        0.22730    0.18470    0.40400    1.000
    C15      C        0.27660    0.27520    0.50260    1.000
    C16      C        0.33950    0.35720    0.56490    1.000
    H11      H        0.35110    0.38250    0.60720    1.000
    C17      C        0.38580    0.40270    0.56580    1.000
    H12      H        0.42850    0.45840    0.60950    1.000
    Co2      Co       0.09447    0.95311    0.02335    1.000
    O5       O        0.21870    0.90310    0.18820    1.000
    O6       O        0.36270    0.95170    0.26220    1.000
    O7       O        0.91620    0.92190    0.88780    1.000
    O8       O        0.85090    0.96180    0.75160    1.000
    N4       N        0.12710    0.87140    0.99280    1.000
    N5       N        0.43050    0.72650    0.53790    1.000
    N6       N        0.39040    0.58050    0.48850    1.000
    C18      C        0.33780    0.91820    0.28100    1.000
    C19      C        0.45010    0.89560    0.41960    1.000
    C20      C        0.58150    0.91700    0.52670    1.000
    H13      H        0.59960    0.94130    0.51170    1.000
    C21      C        0.68560    0.90230    0.65550    1.000
    C22      C        0.82670    0.93180    0.77170    1.000
    C23      C        0.65690    0.86660    0.67580    1.000
    H14      H        0.72680    0.85650    0.76220    1.000
    C24      C        0.52710    0.84520    0.57170    1.000
    C25      C        0.42470    0.86120    0.44310    1.000
    H15      H        0.33660    0.84790    0.37150    1.000
    C26      C        0.49590    0.81560    0.59560    1.000
    H16      H        0.57850    0.81320    0.69040    1.000
    H17      H        0.43780    0.86040    0.55810    1.000
    C27      C        0.32420    0.70360    0.47070    1.000
    H18      H        0.27790    0.74170    0.45010    1.000
    C28      C        0.30050    0.61480    0.44040    1.000
    H19      H        0.23240    0.58120    0.39330    1.000
    C29      C        0.46720    0.65180    0.54710    1.000
    H20      H        0.53810    0.64940    0.58920    1.000
    C30      C        0.18400    0.79000    0.04960    1.000
    H21      H        0.19110    0.76490    0.08810    1.000
    C31      C        0.23300    0.74110    0.05420    1.000
    H22      H        0.27270    0.68470    0.09600    1.000
    C32      C        0.22340    0.77520    0.99740    1.000
    C33      C        0.16050    0.85720    0.93510    1.000
    H23      H        0.14890    0.88250    0.89280    1.000
    C34      C        0.11420    0.90270    0.93420    1.000
    H24      H        0.07150    0.95840    0.89050    1.000
    Co3      Co       0.09447    0.04689    0.52335    1.000
    O9       O        0.21870    0.09690    0.68820    1.000
    O10      O        0.36270    0.04830    0.76220    1.000
    O11      O        0.91620    0.07810    0.38780    1.000
    O12      O        0.85090    0.03820    0.25160    1.000
    N7       N        0.12710    0.12860    0.49280    1.000
    N8       N        0.43050    0.27350    0.03790    1.000
    N9       N        0.39040    0.41950    0.98850    1.000
    C35      C        0.33780    0.08180    0.78100    1.000
    C36      C        0.45010    0.10440    0.91960    1.000
    C37      C        0.58150    0.08300    0.02670    1.000
    H25      H        0.59960    0.05870    0.01170    1.000
    C38      C        0.68560    0.09770    0.15550    1.000
    C39      C        0.82670    0.06820    0.27170    1.000
    C40      C        0.65690    0.13340    0.17580    1.000
    H26      H        0.72680    0.14350    0.26220    1.000
    C41      C        0.52710    0.15480    0.07170    1.000
    C42      C        0.42470    0.13880    0.94310    1.000
    H27      H        0.33660    0.15210    0.87150    1.000
    C43      C        0.49590    0.18440    0.09560    1.000
    H28      H        0.57850    0.18680    0.19040    1.000
    H29      H        0.43780    0.13960    0.05810    1.000
    C44      C        0.32420    0.29640    0.97070    1.000
    H30      H        0.27790    0.25830    0.95010    1.000
    C45      C        0.30050    0.38520    0.94040    1.000
    H31      H        0.23240    0.41880    0.89330    1.000
    C46      C        0.46720    0.34820    0.04710    1.000
    H32      H        0.53810    0.35060    0.08920    1.000
    C47      C        0.18400    0.21000    0.54960    1.000
    H33      H        0.19110    0.23510    0.58810    1.000
    C48      C        0.23300    0.25890    0.55420    1.000
    H34      H        0.27270    0.31530    0.59600    1.000
    C49      C        0.22340    0.22480    0.49740    1.000
    C50      C        0.16050    0.14280    0.43510    1.000
    H35      H        0.14890    0.11750    0.39280    1.000
    C51      C        0.11420    0.09730    0.43420    1.000
    H36      H        0.07150    0.04160    0.39050    1.000
    Co4      Co       0.40553    0.54689    0.97665    1.000
    O13      O        0.28130    0.59690    0.81180    1.000
    O14      O        0.13730    0.54830    0.73780    1.000
    O15      O        0.58380    0.57810    0.11220    1.000
    O16      O        0.64910    0.53820    0.24840    1.000
    N10      N        0.37290    0.62860    0.00720    1.000
    N11      N        0.06950    0.77350    0.46210    1.000
    N12      N        0.10960    0.91950    0.51150    1.000
    C52      C        0.16220    0.58180    0.71900    1.000
    C53      C        0.04990    0.60440    0.58040    1.000
    C54      C        0.91850    0.58300    0.47330    1.000
    H37      H        0.90040    0.55870    0.48830    1.000
    C55      C        0.81440    0.59770    0.34450    1.000
    C56      C        0.67330    0.56820    0.22830    1.000
    C57      C        0.84310    0.63340    0.32420    1.000
    H38      H        0.77320    0.64350    0.23780    1.000
    C58      C        0.97290    0.65480    0.42830    1.000
    C59      C        0.07530    0.63880    0.55690    1.000
    H39      H        0.16340    0.65210    0.62850    1.000
    C60      C        0.00410    0.68440    0.40440    1.000
    H40      H        0.92150    0.68680    0.30960    1.000
    H41      H        0.06220    0.63960    0.44190    1.000
    C61      C        0.17580    0.79640    0.52930    1.000
    H42      H        0.22210    0.75830    0.54990    1.000
    C62      C        0.19950    0.88520    0.55960    1.000
    H43      H        0.26760    0.91880    0.60670    1.000
    C63      C        0.03280    0.84820    0.45290    1.000
    H44      H        0.96190    0.85060    0.41080    1.000
    C64      C        0.31600    0.71000    0.95040    1.000
    H45      H        0.30890    0.73510    0.91190    1.000
    C65      C        0.26700    0.75890    0.94580    1.000
    H46      H        0.22730    0.81530    0.90400    1.000
    C66      C        0.27660    0.72480    0.00260    1.000
    C67      C        0.33950    0.64280    0.06490    1.000
    H47      H        0.35110    0.61750    0.10720    1.000
    C68      C        0.38580    0.59730    0.06580    1.000
    H48      H        0.42850    0.54160    0.10950    1.000
    Co5      Co       0.90553    0.95311    0.47665    1.000
    O17      O        0.78130    0.90310    0.31180    1.000
    O18      O        0.63730    0.95170    0.23780    1.000
    O19      O        0.08380    0.92190    0.61220    1.000
    O20      O        0.14910    0.96180    0.74840    1.000
    N13      N        0.87290    0.87140    0.50720    1.000
    N14      N        0.56950    0.72650    0.96210    1.000
    N15      N        0.60960    0.58050    0.01150    1.000
    C69      C        0.66220    0.91820    0.21900    1.000
    C70      C        0.54990    0.89560    0.08040    1.000
    C71      C        0.41850    0.91700    0.97330    1.000
    H49      H        0.40040    0.94130    0.98830    1.000
    C72      C        0.31440    0.90230    0.84450    1.000
    C73      C        0.17330    0.93180    0.72830    1.000
    C74      C        0.34310    0.86660    0.82420    1.000
    H50      H        0.27320    0.85650    0.73780    1.000
    C75      C        0.47290    0.84520    0.92830    1.000
    C76      C        0.57530    0.86120    0.05690    1.000
    H51      H        0.66340    0.84790    0.12850    1.000
    C77      C        0.50410    0.81560    0.90440    1.000
    H52      H        0.42150    0.81320    0.80960    1.000
    H53      H        0.56220    0.86040    0.94190    1.000
    C78      C        0.67580    0.70360    0.02930    1.000
    H54      H        0.72210    0.74170    0.04990    1.000
    C79      C        0.69950    0.61480    0.05960    1.000
    H55      H        0.76760    0.58120    0.10670    1.000
    C80      C        0.53280    0.65180    0.95290    1.000
    H56      H        0.46190    0.64940    0.91080    1.000
    C81      C        0.81600    0.79000    0.45040    1.000
    H57      H        0.80890    0.76490    0.41190    1.000
    C82      C        0.76700    0.74110    0.44580    1.000
    H58      H        0.72730    0.68470    0.40400    1.000
    C83      C        0.77660    0.77520    0.50260    1.000
    C84      C        0.83950    0.85720    0.56490    1.000
    H59      H        0.85110    0.88250    0.60720    1.000
    C85      C        0.88580    0.90270    0.56580    1.000
    H60      H        0.92850    0.95840    0.60950    1.000
    Co6      Co       0.59447    0.45311    0.02335    1.000
    O21      O        0.71870    0.40310    0.18820    1.000
    O22      O        0.86270    0.45170    0.26220    1.000
    O23      O        0.41620    0.42190    0.88780    1.000
    O24      O        0.35090    0.46180    0.75160    1.000
    N16      N        0.62710    0.37140    0.99280    1.000
    N17      N        0.93050    0.22650    0.53790    1.000
    N18      N        0.89040    0.08050    0.48850    1.000
    C86      C        0.83780    0.41820    0.28100    1.000
    C87      C        0.95010    0.39560    0.41960    1.000
    C88      C        0.08150    0.41700    0.52670    1.000
    H61      H        0.09960    0.44130    0.51170    1.000
    C89      C        0.18560    0.40230    0.65550    1.000
    C90      C        0.32670    0.43180    0.77170    1.000
    C91      C        0.15690    0.36660    0.67580    1.000
    H62      H        0.22680    0.35650    0.76220    1.000
    C92      C        0.02710    0.34520    0.57170    1.000
    C93      C        0.92470    0.36120    0.44310    1.000
    H63      H        0.83660    0.34790    0.37150    1.000
    C94      C        0.99590    0.31560    0.59560    1.000
    H64      H        0.07850    0.31320    0.69040    1.000
    H65      H        0.93780    0.36040    0.55810    1.000
    C95      C        0.82420    0.20360    0.47070    1.000
    H66      H        0.77790    0.24170    0.45010    1.000
    C96      C        0.80050    0.11480    0.44040    1.000
    H67      H        0.73240    0.08120    0.39330    1.000
    C97      C        0.96720    0.15180    0.54710    1.000
    H68      H        0.03810    0.14940    0.58920    1.000
    C98      C        0.68400    0.29000    0.04960    1.000
    H69      H        0.69110    0.26490    0.08810    1.000
    C99      C        0.73300    0.24110    0.05420    1.000
    H70      H        0.77270    0.18470    0.09600    1.000
    C100     C        0.72340    0.27520    0.99740    1.000
    C101     C        0.66050    0.35720    0.93510    1.000
    H71      H        0.64890    0.38250    0.89280    1.000
    C102     C        0.61420    0.40270    0.93420    1.000
    H72      H        0.57150    0.45840    0.89050    1.000
    Co7      Co       0.59447    0.54689    0.52335    1.000
    O25      O        0.71870    0.59690    0.68820    1.000
    O26      O        0.86270    0.54830    0.76220    1.000
    O27      O        0.41620    0.57810    0.38780    1.000
    O28      O        0.35090    0.53820    0.25160    1.000
    N19      N        0.62710    0.62860    0.49280    1.000
    N20      N        0.93050    0.77350    0.03790    1.000
    N21      N        0.89040    0.91950    0.98850    1.000
    C103     C        0.83780    0.58180    0.78100    1.000
    C104     C        0.95010    0.60440    0.91960    1.000
    C105     C        0.08150    0.58300    0.02670    1.000
    H73      H        0.09960    0.55870    0.01170    1.000
    C106     C        0.18560    0.59770    0.15550    1.000
    C107     C        0.32670    0.56820    0.27170    1.000
    C108     C        0.15690    0.63340    0.17580    1.000
    H74      H        0.22680    0.64350    0.26220    1.000
    C109     C        0.02710    0.65480    0.07170    1.000
    C110     C        0.92470    0.63880    0.94310    1.000
    H75      H        0.83660    0.65210    0.87150    1.000
    C111     C        0.99590    0.68440    0.09560    1.000
    H76      H        0.07850    0.68680    0.19040    1.000
    H77      H        0.93780    0.63960    0.05810    1.000
    C112     C        0.82420    0.79640    0.97070    1.000
    H78      H        0.77790    0.75830    0.95010    1.000
    C113     C        0.80050    0.88520    0.94040    1.000
    H79      H        0.73240    0.91880    0.89330    1.000
    C114     C        0.96720    0.84820    0.04710    1.000
    H80      H        0.03810    0.85060    0.08920    1.000
    C115     C        0.68400    0.71000    0.54960    1.000
    H81      H        0.69110    0.73510    0.58810    1.000
    C116     C        0.73300    0.75890    0.55420    1.000
    H82      H        0.77270    0.81530    0.59600    1.000
    C117     C        0.72340    0.72480    0.49740    1.000
    C118     C        0.66050    0.64280    0.43510    1.000
    H83      H        0.64890    0.61750    0.39280    1.000
    C119     C        0.61420    0.59730    0.43420    1.000
    H84      H        0.57150    0.54160    0.39050    1.000
    Co8      Co       0.90553    0.04689    0.97665    1.000
    O29      O        0.78130    0.09690    0.81180    1.000
    O30      O        0.63730    0.04830    0.73780    1.000
    O31      O        0.08380    0.07810    0.11220    1.000
    O32      O        0.14910    0.03820    0.24840    1.000
    N22      N        0.87290    0.12860    0.00720    1.000
    N23      N        0.56950    0.27350    0.46210    1.000
    N24      N        0.60960    0.41950    0.51150    1.000
    C120     C        0.66220    0.08180    0.71900    1.000
    C121     C        0.54990    0.10440    0.58040    1.000
    C122     C        0.41850    0.08300    0.47330    1.000
    H85      H        0.40040    0.05870    0.48830    1.000
    C123     C        0.31440    0.09770    0.34450    1.000
    C124     C        0.17330    0.06820    0.22830    1.000
    C125     C        0.34310    0.13340    0.32420    1.000
    H86      H        0.27320    0.14350    0.23780    1.000
    C126     C        0.47290    0.15480    0.42830    1.000
    C127     C        0.57530    0.13880    0.55690    1.000
    H87      H        0.66340    0.15210    0.62850    1.000
    C128     C        0.50410    0.18440    0.40440    1.000
    H88      H        0.42150    0.18680    0.30960    1.000
    H89      H        0.56220    0.13960    0.44190    1.000
    C129     C        0.67580    0.29640    0.52930    1.000
    H90      H        0.72210    0.25830    0.54990    1.000
    C130     C        0.69950    0.38520    0.55960    1.000
    H91      H        0.76760    0.41880    0.60670    1.000
    C131     C        0.53280    0.34820    0.45290    1.000
    H92      H        0.46190    0.35060    0.41080    1.000
    C132     C        0.81600    0.21000    0.95040    1.000
    H93      H        0.80890    0.23510    0.91190    1.000
    C133     C        0.76700    0.25890    0.94580    1.000
    H94      H        0.72730    0.31530    0.90400    1.000
    C134     C        0.77660    0.22480    0.00260    1.000
    C135     C        0.83950    0.14280    0.06490    1.000
    H95      H        0.85110    0.11750    0.10720    1.000
    C136     C        0.88580    0.09730    0.06580    1.000
    H96      H        0.92850    0.04160    0.10950    1.000
