# CIF file generated by openbabel 3.1.0, see https://openbabel.org
data_I
_chemical_name_common 'image0'
_cell_length_a 9.9144
_cell_length_b 14.4414
_cell_length_c 14.9785
_cell_angle_alpha 90
_cell_angle_beta 98.887
_cell_angle_gamma 90
_space_group_name_H-M_alt 'P 1'
_space_group_name_Hall 'P 1'
loop_
    _symmetry_equiv_pos_as_xyz
    x,y,z
loop_
    _atom_site_label
    _atom_site_type_symbol
    _atom_site_fract_x
    _atom_site_fract_y
    _atom_site_fract_z
    _atom_site_occupancy
    Zn1      Zn       0.34068    0.74059    0.99796    1.000
    Zn2      Zn       0.31511    0.62062    0.37396    1.000
    Zn3      Zn       0.20854    0.41675    0.18358    1.000
    P1       P        0.25290    0.91561    0.09966    1.000
    H1       H        0.14400    0.85800    0.10550    1.000
    P2       P        0.29000    0.62290    0.16588    1.000
    H2       H        0.21000    0.68900    0.17710    1.000
    P3       P        0.02330    0.71399    0.94175    1.000
    H3       H        0.03800    0.67700    0.02700    1.000
    P4       P        0.60080    0.72572    0.88969    1.000
    H4       H        0.68800    0.70810    0.97300    1.000
    O1       O        0.34000    0.86900    0.03720    1.000
    O2       O        0.16620    0.72520    0.91820    1.000
    O3       O        0.37760    0.65590    0.09710    1.000
    O4       O        0.45560    0.71950    0.90840    1.000
    O5       O        0.37960    0.60610    0.25710    1.000
    O6       O        0.19570    0.00630    0.06040    1.000
    O7       O        0.63320    0.82240    0.85910    1.000
    O8       O        0.95030    0.80450    0.94520    1.000
    O9       O        0.20240    0.54130    0.13420    1.000
    O10      O        0.62560    0.65000    0.82430    1.000
    O11      O        0.33190    0.92620    0.19460    1.000
    O12      O        0.94720    0.64470    0.88030    1.000
    Zn4      Zn       0.15932    0.24059    0.50204    1.000
    Zn5      Zn       0.18489    0.12062    0.12604    1.000
    Zn6      Zn       0.29146    0.91675    0.31642    1.000
    P5       P        0.24710    0.41561    0.40034    1.000
    H5       H        0.35600    0.35800    0.39450    1.000
    P6       P        0.21000    0.12290    0.33412    1.000
    H6       H        0.29000    0.18900    0.32290    1.000
    P7       P        0.47670    0.21399    0.55825    1.000
    H7       H        0.46200    0.17700    0.47300    1.000
    P8       P        0.89920    0.22572    0.61031    1.000
    H8       H        0.81200    0.20810    0.52700    1.000
    O13      O        0.16000    0.36900    0.46280    1.000
    O14      O        0.33380    0.22520    0.58180    1.000
    O15      O        0.12240    0.15590    0.40290    1.000
    O16      O        0.04440    0.21950    0.59160    1.000
    O17      O        0.12040    0.10610    0.24290    1.000
    O18      O        0.30430    0.50630    0.43960    1.000
    O19      O        0.86680    0.32240    0.64090    1.000
    O20      O        0.54970    0.30450    0.55480    1.000
    O21      O        0.29760    0.04130    0.36580    1.000
    O22      O        0.87440    0.15000    0.67570    1.000
    O23      O        0.16810    0.42620    0.30540    1.000
    O24      O        0.55280    0.14470    0.61970    1.000
    Zn7      Zn       0.65932    0.25941    0.00204    1.000
    Zn8      Zn       0.68489    0.37938    0.62604    1.000
    Zn9      Zn       0.79146    0.58325    0.81642    1.000
    P9       P        0.74710    0.08439    0.90034    1.000
    H9       H        0.85600    0.14200    0.89450    1.000
    P10      P        0.71000    0.37710    0.83412    1.000
    H10      H        0.79000    0.31100    0.82290    1.000
    P11      P        0.97670    0.28601    0.05825    1.000
    H11      H        0.96200    0.32300    0.97300    1.000
    P12      P        0.39920    0.27428    0.11031    1.000
    H12      H        0.31200    0.29190    0.02700    1.000
    O25      O        0.66000    0.13100    0.96280    1.000
    O26      O        0.83380    0.27480    0.08180    1.000
    O27      O        0.62240    0.34410    0.90290    1.000
    O28      O        0.54440    0.28050    0.09160    1.000
    O29      O        0.62040    0.39390    0.74290    1.000
    O30      O        0.80430    0.99370    0.93960    1.000
    O31      O        0.36680    0.17760    0.14090    1.000
    O32      O        0.04970    0.19550    0.05480    1.000
    O33      O        0.79760    0.45870    0.86580    1.000
    O34      O        0.37440    0.35000    0.17570    1.000
    O35      O        0.66810    0.07380    0.80540    1.000
    O36      O        0.05280    0.35530    0.11970    1.000
    Zn10     Zn       0.84068    0.75941    0.49796    1.000
    Zn11     Zn       0.81511    0.87938    0.87396    1.000
    Zn12     Zn       0.70854    0.08325    0.68358    1.000
    P13      P        0.75290    0.58439    0.59966    1.000
    H13      H        0.64400    0.64200    0.60550    1.000
    P14      P        0.79000    0.87710    0.66588    1.000
    H14      H        0.71000    0.81100    0.67710    1.000
    P15      P        0.52330    0.78601    0.44175    1.000
    H15      H        0.53800    0.82300    0.52700    1.000
    P16      P        0.10080    0.77428    0.38969    1.000
    H16      H        0.18800    0.79190    0.47300    1.000
    O37      O        0.84000    0.63100    0.53720    1.000
    O38      O        0.66620    0.77480    0.41820    1.000
    O39      O        0.87760    0.84410    0.59710    1.000
    O40      O        0.95560    0.78050    0.40840    1.000
    O41      O        0.87960    0.89390    0.75710    1.000
    O42      O        0.69570    0.49370    0.56040    1.000
    O43      O        0.13320    0.67760    0.35910    1.000
    O44      O        0.45030    0.69550    0.44520    1.000
    O45      O        0.70240    0.95870    0.63420    1.000
    O46      O        0.12560    0.85000    0.32430    1.000
    O47      O        0.83190    0.57380    0.69460    1.000
    O48      O        0.44720    0.85530    0.38030    1.000
