# CIF file generated by openbabel 3.1.0, see https://openbabel.org
data_I
_chemical_name_common 'image0'
_cell_length_a 15.468
_cell_length_b 15.785
_cell_length_c 18.038
_cell_angle_alpha 107.27
_cell_angle_beta 103.949
_cell_angle_gamma 107.163
_space_group_name_H-M_alt 'P 1'
_space_group_name_Hall 'P 1'
loop_
    _symmetry_equiv_pos_as_xyz
    x,y,z
loop_
    _atom_site_label
    _atom_site_type_symbol
    _atom_site_fract_x
    _atom_site_fract_y
    _atom_site_fract_z
    _atom_site_occupancy
    Co1      Co       0.02536    0.17788    0.91484    1.000
    O1       O        0.95830    0.10460    0.06200    1.000
    O2       O        0.97680    0.22800    0.01280    1.000
    O3       O        0.94890    0.02010    0.88040    1.000
    O4       O        0.02490    0.06480    0.79740    1.000
    O5       O        0.89040    0.17820    0.82140    1.000
    O6       O        0.03590    0.29210    0.87050    1.000
    O7       O        0.17240    0.22730    0.98790    1.000
    O8       O        0.14200    0.10370    0.02820    1.000
    C1       C        0.97160    0.99960    0.81280    1.000
    C2       C        0.92430    0.89730    0.75630    1.000
    C3       C        0.86370    0.82660    0.77410    1.000
    H1       H        0.84860    0.84500    0.82170    1.000
    C4       C        0.82680    0.73160    0.72290    1.000
    H2       H        0.78500    0.68640    0.73510    1.000
    C5       C        0.85010    0.70030    0.65280    1.000
    C6       C        0.90650    0.76760    0.63170    1.000
    H3       H        0.91850    0.74710    0.58270    1.000
    C7       C        0.94660    0.86750    0.68260    1.000
    H4       H        0.98620    0.91240    0.66860    1.000
    C8       C        0.82100    0.59460    0.60590    1.000
    C9       C        0.84110    0.54070    0.65040    1.000
    H5       H        0.87010    0.57140    0.70810    1.000
    O9       O        0.76360    0.59680    0.47030    1.000
    C10      C        0.81990    0.44210    0.61290    1.000
    O10      O        0.75360    0.29720    0.48590    1.000
    C11      C        0.77990    0.39670    0.52980    1.000
    O11      O        0.56150    0.39220    0.37830    1.000
    C12      C        0.75890    0.44910    0.48140    1.000
    O12      O        0.87950    0.41160    0.39630    1.000
    C13      C        0.78260    0.54640    0.52040    1.000
    C14      C        0.68470    0.63370    0.47480    1.000
    H6       H        0.68480    0.67460    0.44460    1.000
    H7       H        0.69620    0.67000    0.53190    1.000
    H8       H        0.62300    0.58010    0.45070    1.000
    C15      C        0.83790    0.26920    0.48420    1.000
    H9       H        0.81720    0.20080    0.46900    1.000
    H10      H        0.88820    0.30270    0.53820    1.000
    H11      H        0.86230    0.28610    0.44410    1.000
    C16      C        0.94770    0.25530    0.82290    1.000
    C17      C        0.91240    0.30330    0.77250    1.000
    C18      C        0.82140    0.26220    0.71350    1.000
    H12      H        0.77860    0.20390    0.70930    1.000
    C19      C        0.79030    0.30140    0.66100    1.000
    H13      H        0.72960    0.26740    0.61880    1.000
    C20      C        0.84830    0.39210    0.66950    1.000
    C21      C        0.94120    0.43950    0.73360    1.000
    H14      H        0.97990    0.50180    0.74230    1.000
    C22      C        0.97540    0.39760    0.78210    1.000
    H15      H        0.03830    0.42850    0.82110    1.000
    C23      C        0.95440    0.18000    0.06300    1.000
    C24      C        0.91250    0.23720    0.11730    1.000
    C25      C        0.91420    0.22080    0.18970    1.000
    H16      H        0.94370    0.18120    0.20350    1.000
    C26      C        0.87120    0.26420    0.24140    1.000
    H17      H        0.87780    0.25850    0.29210    1.000
    C27      C        0.81660    0.31780    0.21650    1.000
    C28      C        0.81840    0.33690    0.14530    1.000
    H18      H        0.78920    0.37660    0.13130    1.000
    C29      C        0.86500    0.29530    0.09490    1.000
    H19      H        0.86430    0.30600    0.04680    1.000
    C30      C        0.75140    0.34270    0.25980    1.000
    C31      C        0.78530    0.38660    0.34910    1.000
    C32      C        0.94060    0.50720    0.40860    1.000
    H20      H        0.00740    0.51700    0.43040    1.000
    H21      H        0.92780    0.55430    0.44720    1.000
    H22      H        0.92720    0.51410    0.35640    1.000
    C33      C        0.71980    0.40180    0.38770    1.000
    C34      C        0.62380    0.37270    0.34010    1.000
    C35      C        0.59110    0.33110    0.25330    1.000
    C36      C        0.65780    0.32020    0.21600    1.000
    H23      H        0.63720    0.29620    0.15830    1.000
    C37      C        0.52660    0.33130    0.42170    1.000
    H24      H        0.48110    0.35000    0.44330    1.000
    H25      H        0.58060    0.33930    0.46680    1.000
    H26      H        0.49560    0.26480    0.38340    1.000
    C38      C        0.48950    0.29660    0.19970    1.000
    C39      C        0.46180    0.33530    0.13810    1.000
    H27      H        0.50780    0.38350    0.13200    1.000
    C40      C        0.36520    0.29820    0.08920    1.000
    H28      H        0.34610    0.32840    0.05500    1.000
    C41      C        0.29770    0.22240    0.08760    1.000
    C42      C        0.32590    0.18620    0.14160    1.000
    H29      H        0.28050    0.13240    0.14180    1.000
    C43      C        0.42190    0.22520    0.19920    1.000
    H30      H        0.43650    0.19860    0.23780    1.000
    C44      C        0.19610    0.18440    0.03060    1.000
    Co2      Co       0.97464    0.82212    0.08516    1.000
    O13      O        0.04170    0.89540    0.93800    1.000
    O14      O        0.02320    0.77200    0.98720    1.000
    O15      O        0.05110    0.97990    0.11960    1.000
    O16      O        0.97510    0.93520    0.20260    1.000
    O17      O        0.10960    0.82180    0.17860    1.000
    O18      O        0.96410    0.70790    0.12950    1.000
    O19      O        0.82760    0.77270    0.01210    1.000
    O20      O        0.85800    0.89630    0.97180    1.000
    C45      C        0.02840    0.00040    0.18720    1.000
    C46      C        0.07570    0.10270    0.24370    1.000
    C47      C        0.13630    0.17340    0.22590    1.000
    H31      H        0.15140    0.15500    0.17830    1.000
    C48      C        0.17320    0.26840    0.27710    1.000
    H32      H        0.21500    0.31360    0.26490    1.000
    C49      C        0.14990    0.29970    0.34720    1.000
    C50      C        0.09350    0.23240    0.36830    1.000
    H33      H        0.08150    0.25290    0.41730    1.000
    C51      C        0.05340    0.13250    0.31740    1.000
    H34      H        0.01380    0.08760    0.33140    1.000
    C52      C        0.17900    0.40540    0.39410    1.000
    C53      C        0.15890    0.45930    0.34960    1.000
    H35      H        0.12990    0.42860    0.29190    1.000
    O21      O        0.23640    0.40320    0.52970    1.000
    C54      C        0.18010    0.55790    0.38710    1.000
    O22      O        0.24640    0.70280    0.51410    1.000
    C55      C        0.22010    0.60330    0.47020    1.000
    O23      O        0.43850    0.60780    0.62170    1.000
    C56      C        0.24110    0.55090    0.51860    1.000
    O24      O        0.12050    0.58840    0.60370    1.000
    C57      C        0.21740    0.45360    0.47960    1.000
    C58      C        0.31530    0.36630    0.52520    1.000
    H36      H        0.31520    0.32540    0.55540    1.000
    H37      H        0.30380    0.33000    0.46810    1.000
    H38      H        0.37700    0.41990    0.54930    1.000
    C59      C        0.16210    0.73080    0.51580    1.000
    H39      H        0.18280    0.79920    0.53100    1.000
    H40      H        0.11180    0.69730    0.46180    1.000
    H41      H        0.13770    0.71390    0.55590    1.000
    C60      C        0.05230    0.74470    0.17710    1.000
    C61      C        0.08760    0.69670    0.22750    1.000
    C62      C        0.17860    0.73780    0.28650    1.000
    H42      H        0.22140    0.79610    0.29070    1.000
    C63      C        0.20970    0.69860    0.33900    1.000
    H43      H        0.27040    0.73260    0.38120    1.000
    C64      C        0.15170    0.60790    0.33050    1.000
    C65      C        0.05880    0.56050    0.26640    1.000
    H44      H        0.02010    0.49820    0.25770    1.000
    C66      C        0.02460    0.60240    0.21790    1.000
    H45      H        0.96170    0.57150    0.17890    1.000
    C67      C        0.04560    0.82000    0.93700    1.000
    C68      C        0.08750    0.76280    0.88270    1.000
    C69      C        0.08580    0.77920    0.81030    1.000
    H46      H        0.05630    0.81880    0.79650    1.000
    C70      C        0.12880    0.73580    0.75860    1.000
    H47      H        0.12220    0.74150    0.70790    1.000
    C71      C        0.18340    0.68220    0.78350    1.000
    C72      C        0.18160    0.66310    0.85470    1.000
    H48      H        0.21080    0.62340    0.86870    1.000
    C73      C        0.13500    0.70470    0.90510    1.000
    H49      H        0.13570    0.69400    0.95320    1.000
    C74      C        0.24860    0.65730    0.74020    1.000
    C75      C        0.21470    0.61340    0.65090    1.000
    C76      C        0.05940    0.49280    0.59140    1.000
    H50      H        0.99260    0.48300    0.56960    1.000
    H51      H        0.07220    0.44570    0.55280    1.000
    H52      H        0.07280    0.48590    0.64360    1.000
    C77      C        0.28020    0.59820    0.61230    1.000
    C78      C        0.37620    0.62730    0.65990    1.000
    C79      C        0.40890    0.66890    0.74670    1.000
    C80      C        0.34220    0.67980    0.78400    1.000
    H53      H        0.36280    0.70380    0.84170    1.000
    C81      C        0.47340    0.66870    0.57830    1.000
    H54      H        0.51890    0.65000    0.55670    1.000
    H55      H        0.41940    0.66070    0.53320    1.000
    H56      H        0.50440    0.73520    0.61660    1.000
    C82      C        0.51050    0.70340    0.80030    1.000
    C83      C        0.53820    0.66470    0.86190    1.000
    H57      H        0.49220    0.61650    0.86800    1.000
    C84      C        0.63480    0.70180    0.91080    1.000
    H58      H        0.65390    0.67160    0.94500    1.000
    C85      C        0.70230    0.77760    0.91240    1.000
    C86      C        0.67410    0.81380    0.85840    1.000
    H59      H        0.71950    0.86760    0.85820    1.000
    C87      C        0.57810    0.77480    0.80080    1.000
    H60      H        0.56350    0.80140    0.76220    1.000
    C88      C        0.80390    0.81560    0.96940    1.000
    Co3      Co       0.00000    0.00000    0.00000    1.000
