# CIF file generated by openbabel 3.1.0, see https://openbabel.org
data_I
_chemical_name_common 'image0'
_cell_length_a 10.451
_cell_length_b 10.51
_cell_length_c 6.268
_cell_angle_alpha 90
_cell_angle_beta 115.08
_cell_angle_gamma 90
_space_group_name_H-M_alt 'P 1'
_space_group_name_Hall 'P 1'
loop_
    _symmetry_equiv_pos_as_xyz
    x,y,z
loop_
    _atom_site_label
    _atom_site_type_symbol
    _atom_site_fract_x
    _atom_site_fract_y
    _atom_site_fract_z
    _atom_site_occupancy
    C1       C        0.31300    0.20850    0.54400    1.000
    H1       H        0.39600    0.26110    0.58010    1.000
    H2       H        0.32220    0.16890    0.68920    1.000
    N1       N        0.31110    0.10870    0.37960    1.000
    H3       H        0.29630    0.14470    0.24090    1.000
    H4       H        0.23810    0.05600    0.35440    1.000
    C2       C        0.81300    0.70850    0.54400    1.000
    H5       H        0.89600    0.76110    0.58010    1.000
    H6       H        0.82220    0.66890    0.68920    1.000
    N2       N        0.81110    0.60870    0.37960    1.000
    H7       H        0.79630    0.64470    0.24090    1.000
    H8       H        0.73810    0.55600    0.35440    1.000
    C3       C        0.68700    0.20850    0.95600    1.000
    H9       H        0.60400    0.26110    0.91990    1.000
    H10      H        0.67780    0.16890    0.81080    1.000
    N3       N        0.68890    0.10870    0.12040    1.000
    H11      H        0.70370    0.14470    0.25910    1.000
    H12      H        0.76190    0.05600    0.14560    1.000
    C4       C        0.18700    0.70850    0.95600    1.000
    H13      H        0.10400    0.76110    0.91990    1.000
    H14      H        0.17780    0.66890    0.81080    1.000
    N4       N        0.18890    0.60870    0.12040    1.000
    H15      H        0.20370    0.64470    0.25910    1.000
    H16      H        0.26190    0.55600    0.14560    1.000
    C5       C        0.68700    0.79150    0.45600    1.000
    H17      H        0.60400    0.73890    0.41990    1.000
    H18      H        0.67780    0.83110    0.31080    1.000
    N5       N        0.68890    0.89130    0.62040    1.000
    H19      H        0.70370    0.85530    0.75910    1.000
    H20      H        0.76190    0.94400    0.64560    1.000
    C6       C        0.18700    0.29150    0.45600    1.000
    H21      H        0.10400    0.23890    0.41990    1.000
    H22      H        0.17780    0.33110    0.31080    1.000
    N6       N        0.18890    0.39130    0.62040    1.000
    H23      H        0.20370    0.35530    0.75910    1.000
    H24      H        0.26190    0.44400    0.64560    1.000
    C7       C        0.31300    0.79150    0.04400    1.000
    H25      H        0.39600    0.73890    0.08010    1.000
    H26      H        0.32220    0.83110    0.18920    1.000
    N7       N        0.31110    0.89130    0.87960    1.000
    H27      H        0.29630    0.85530    0.74090    1.000
    H28      H        0.23810    0.94400    0.85440    1.000
    C8       C        0.81300    0.29150    0.04400    1.000
    H29      H        0.89600    0.23890    0.08010    1.000
    H30      H        0.82220    0.33110    0.18920    1.000
    N8       N        0.81110    0.39130    0.87960    1.000
    H31      H        0.79630    0.35530    0.74090    1.000
    H32      H        0.73810    0.44400    0.85440    1.000
    Ag1      Ag       0.50000    0.00000    0.50000    1.000
    Ag2      Ag       0.00000    0.50000    0.50000    1.000
    Ag3      Ag       0.50000    0.00000    0.00000    1.000
    Ag4      Ag       0.00000    0.50000    0.00000    1.000
