# CIF file generated by openbabel 3.1.0, see https://openbabel.org
data_I
_chemical_name_common 'image0'
_cell_length_a 28.023
_cell_length_b 28.023
_cell_length_c 19.684
_cell_angle_alpha 90
_cell_angle_beta 90
_cell_angle_gamma 90
_space_group_name_H-M_alt 'P 1'
_space_group_name_Hall 'P 1'
loop_
    _symmetry_equiv_pos_as_xyz
    x,y,z
loop_
    _atom_site_label
    _atom_site_type_symbol
    _atom_site_fract_x
    _atom_site_fract_y
    _atom_site_fract_z
    _atom_site_occupancy
    U1       U        0.00039    0.37144    0.21681    1.000
    U2       U        0.80917    0.33137    0.80457    1.000
    U3       U        0.70731    0.56552    0.83756    1.000
    S1       S        0.89992    0.42054    0.13290    1.000
    S2       S        0.77430    0.45635    0.82659    1.000
    S3       S        0.92596    0.27113    0.17529    1.000
    S4       S        0.80797    0.21981    0.70794    1.000
    O1       O        0.00800    0.45810    0.20640    1.000
    O2       O        0.72850    0.48220    0.82280    1.000
    O3       O        0.89250    0.44800    0.07060    1.000
    O4       O        0.76480    0.40490    0.83350    1.000
    O5       O        0.94730    0.39780    0.12790    1.000
    O6       O        0.80230    0.25110    0.76750    1.000
    O7       O        0.80220    0.46480    0.76430    1.000
    O8       O        0.91230    0.24830    0.11260    1.000
    O9       O        0.94110    0.23470    0.22510    1.000
    O10      O        0.80180    0.47370    0.88500    1.000
    O11      O        0.85620    0.19930    0.70980    1.000
    O12      O        0.89910    0.45120    0.19210    1.000
    O13      O        0.96660    0.30340    0.16230    1.000
    O14      O        0.77390    0.18000    0.71750    1.000
    O15      O        0.88720    0.29880    0.20520    1.000
    O16      O        0.86330    0.38390    0.13770    1.000
    O17      O        0.79890    0.24440    0.64620    1.000
    O18      O        0.68530    0.52410    0.06030    1.000
    U4       U        0.50039    0.87144    0.71681    1.000
    U5       U        0.30917    0.83137    0.30457    1.000
    U6       U        0.20731    0.06552    0.33756    1.000
    S5       S        0.39992    0.92054    0.63290    1.000
    S6       S        0.27430    0.95635    0.32659    1.000
    S7       S        0.42596    0.77113    0.67529    1.000
    S8       S        0.30797    0.71981    0.20794    1.000
    O19      O        0.50800    0.95810    0.70640    1.000
    O20      O        0.22850    0.98220    0.32280    1.000
    O21      O        0.39250    0.94800    0.57060    1.000
    O22      O        0.26480    0.90490    0.33350    1.000
    O23      O        0.44730    0.89780    0.62790    1.000
    O24      O        0.30230    0.75110    0.26750    1.000
    O25      O        0.30220    0.96480    0.26430    1.000
    O26      O        0.41230    0.74830    0.61260    1.000
    O27      O        0.44110    0.73470    0.72510    1.000
    O28      O        0.30180    0.97370    0.38500    1.000
    O29      O        0.35620    0.69930    0.20980    1.000
    O30      O        0.39910    0.95120    0.69210    1.000
    O31      O        0.46660    0.80340    0.66230    1.000
    O32      O        0.27390    0.68000    0.21750    1.000
    O33      O        0.38720    0.79880    0.70520    1.000
    O34      O        0.36330    0.88390    0.63770    1.000
    O35      O        0.29890    0.74440    0.14620    1.000
    O36      O        0.18530    0.02410    0.56030    1.000
    U7       U        0.99961    0.62856    0.21681    1.000
    U8       U        0.19083    0.66863    0.80457    1.000
    U9       U        0.29269    0.43448    0.83756    1.000
    S9       S        0.10008    0.57946    0.13290    1.000
    S10      S        0.22570    0.54365    0.82659    1.000
    S11      S        0.07404    0.72887    0.17529    1.000
    S12      S        0.19203    0.78019    0.70794    1.000
    O37      O        0.99200    0.54190    0.20640    1.000
    O38      O        0.27150    0.51780    0.82280    1.000
    O39      O        0.10750    0.55200    0.07060    1.000
    O40      O        0.23520    0.59510    0.83350    1.000
    O41      O        0.05270    0.60220    0.12790    1.000
    O42      O        0.19770    0.74890    0.76750    1.000
    O43      O        0.19780    0.53520    0.76430    1.000
    O44      O        0.08770    0.75170    0.11260    1.000
    O45      O        0.05890    0.76530    0.22510    1.000
    O46      O        0.19820    0.52630    0.88500    1.000
    O47      O        0.14380    0.80070    0.70980    1.000
    O48      O        0.10090    0.54880    0.19210    1.000
    O49      O        0.03340    0.69660    0.16230    1.000
    O50      O        0.22610    0.82000    0.71750    1.000
    O51      O        0.11280    0.70120    0.20520    1.000
    O52      O        0.13670    0.61610    0.13770    1.000
    O53      O        0.20110    0.75560    0.64620    1.000
    O54      O        0.31470    0.47590    0.06030    1.000
    U10      U        0.49961    0.12856    0.71681    1.000
    U11      U        0.69083    0.16863    0.30457    1.000
    U12      U        0.79269    0.93448    0.33756    1.000
    S13      S        0.60008    0.07946    0.63290    1.000
    S14      S        0.72570    0.04365    0.32659    1.000
    S15      S        0.57404    0.22887    0.67529    1.000
    S16      S        0.69203    0.28019    0.20794    1.000
    O55      O        0.49200    0.04190    0.70640    1.000
    O56      O        0.77150    0.01780    0.32280    1.000
    O57      O        0.60750    0.05200    0.57060    1.000
    O58      O        0.73520    0.09510    0.33350    1.000
    O59      O        0.55270    0.10220    0.62790    1.000
    O60      O        0.69770    0.24890    0.26750    1.000
    O61      O        0.69780    0.03520    0.26430    1.000
    O62      O        0.58770    0.25170    0.61260    1.000
    O63      O        0.55890    0.26530    0.72510    1.000
    O64      O        0.69820    0.02630    0.38500    1.000
    O65      O        0.64380    0.30070    0.20980    1.000
    O66      O        0.60090    0.04880    0.69210    1.000
    O67      O        0.53340    0.19660    0.66230    1.000
    O68      O        0.72610    0.32000    0.21750    1.000
    O69      O        0.61280    0.20120    0.70520    1.000
    O70      O        0.63670    0.11610    0.63770    1.000
    O71      O        0.70110    0.25560    0.14620    1.000
    O72      O        0.81470    0.97590    0.56030    1.000
    U13      U        0.62856    0.00039    0.21681    1.000
    U14      U        0.66863    0.80917    0.80457    1.000
    U15      U        0.43448    0.70731    0.83756    1.000
    S17      S        0.57946    0.89992    0.13290    1.000
    S18      S        0.54365    0.77430    0.82659    1.000
    S19      S        0.72887    0.92596    0.17529    1.000
    S20      S        0.78019    0.80797    0.70794    1.000
    O73      O        0.54190    0.00800    0.20640    1.000
    O74      O        0.51780    0.72850    0.82280    1.000
    O75      O        0.55200    0.89250    0.07060    1.000
    O76      O        0.59510    0.76480    0.83350    1.000
    O77      O        0.60220    0.94730    0.12790    1.000
    O78      O        0.74890    0.80230    0.76750    1.000
    O79      O        0.53520    0.80220    0.76430    1.000
    O80      O        0.75170    0.91230    0.11260    1.000
    O81      O        0.76530    0.94110    0.22510    1.000
    O82      O        0.52630    0.80180    0.88500    1.000
    O83      O        0.80070    0.85620    0.70980    1.000
    O84      O        0.54880    0.89910    0.19210    1.000
    O85      O        0.69660    0.96660    0.16230    1.000
    O86      O        0.82000    0.77390    0.71750    1.000
    O87      O        0.70120    0.88720    0.20520    1.000
    O88      O        0.61610    0.86330    0.13770    1.000
    O89      O        0.75560    0.79890    0.64620    1.000
    O90      O        0.47590    0.68530    0.06030    1.000
    U16      U        0.12856    0.50039    0.71681    1.000
    U17      U        0.16863    0.30917    0.30457    1.000
    U18      U        0.93448    0.20731    0.33756    1.000
    S21      S        0.07946    0.39992    0.63290    1.000
    S22      S        0.04365    0.27430    0.32659    1.000
    S23      S        0.22887    0.42596    0.67529    1.000
    S24      S        0.28019    0.30797    0.20794    1.000
    O91      O        0.04190    0.50800    0.70640    1.000
    O92      O        0.01780    0.22850    0.32280    1.000
    O93      O        0.05200    0.39250    0.57060    1.000
    O94      O        0.09510    0.26480    0.33350    1.000
    O95      O        0.10220    0.44730    0.62790    1.000
    O96      O        0.24890    0.30230    0.26750    1.000
    O97      O        0.03520    0.30220    0.26430    1.000
    O98      O        0.25170    0.41230    0.61260    1.000
    O99      O        0.26530    0.44110    0.72510    1.000
    O100     O        0.02630    0.30180    0.38500    1.000
    O101     O        0.30070    0.35620    0.20980    1.000
    O102     O        0.04880    0.39910    0.69210    1.000
    O103     O        0.19660    0.46660    0.66230    1.000
    O104     O        0.32000    0.27390    0.21750    1.000
    O105     O        0.20120    0.38720    0.70520    1.000
    O106     O        0.11610    0.36330    0.63770    1.000
    O107     O        0.25560    0.29890    0.14620    1.000
    O108     O        0.97590    0.18530    0.56030    1.000
    U19      U        0.37144    0.99961    0.21681    1.000
    U20      U        0.33137    0.19083    0.80457    1.000
    U21      U        0.56552    0.29269    0.83756    1.000
    S25      S        0.42054    0.10008    0.13290    1.000
    S26      S        0.45635    0.22570    0.82659    1.000
    S27      S        0.27113    0.07404    0.17529    1.000
    S28      S        0.21981    0.19203    0.70794    1.000
    O109     O        0.45810    0.99200    0.20640    1.000
    O110     O        0.48220    0.27150    0.82280    1.000
    O111     O        0.44800    0.10750    0.07060    1.000
    O112     O        0.40490    0.23520    0.83350    1.000
    O113     O        0.39780    0.05270    0.12790    1.000
    O114     O        0.25110    0.19770    0.76750    1.000
    O115     O        0.46480    0.19780    0.76430    1.000
    O116     O        0.24830    0.08770    0.11260    1.000
    O117     O        0.23470    0.05890    0.22510    1.000
    O118     O        0.47370    0.19820    0.88500    1.000
    O119     O        0.19930    0.14380    0.70980    1.000
    O120     O        0.45120    0.10090    0.19210    1.000
    O121     O        0.30340    0.03340    0.16230    1.000
    O122     O        0.18000    0.22610    0.71750    1.000
    O123     O        0.29880    0.11280    0.20520    1.000
    O124     O        0.38390    0.13670    0.13770    1.000
    O125     O        0.24440    0.20110    0.64620    1.000
    O126     O        0.52410    0.31470    0.06030    1.000
    U22      U        0.87144    0.49961    0.71681    1.000
    U23      U        0.83137    0.69083    0.30457    1.000
    U24      U        0.06552    0.79269    0.33756    1.000
    S29      S        0.92054    0.60008    0.63290    1.000
    S30      S        0.95635    0.72570    0.32659    1.000
    S31      S        0.77113    0.57404    0.67529    1.000
    S32      S        0.71981    0.69203    0.20794    1.000
    O127     O        0.95810    0.49200    0.70640    1.000
    O128     O        0.98220    0.77150    0.32280    1.000
    O129     O        0.94800    0.60750    0.57060    1.000
    O130     O        0.90490    0.73520    0.33350    1.000
    O131     O        0.89780    0.55270    0.62790    1.000
    O132     O        0.75110    0.69770    0.26750    1.000
    O133     O        0.96480    0.69780    0.26430    1.000
    O134     O        0.74830    0.58770    0.61260    1.000
    O135     O        0.73470    0.55890    0.72510    1.000
    O136     O        0.97370    0.69820    0.38500    1.000
    O137     O        0.69930    0.64380    0.20980    1.000
    O138     O        0.95120    0.60090    0.69210    1.000
    O139     O        0.80340    0.53340    0.66230    1.000
    O140     O        0.68000    0.72610    0.21750    1.000
    O141     O        0.79880    0.61280    0.70520    1.000
    O142     O        0.88390    0.63670    0.63770    1.000
    O143     O        0.74440    0.70110    0.14620    1.000
    O144     O        0.02410    0.81470    0.56030    1.000
    U25      U        0.99961    0.62856    0.78319    1.000
    U26      U        0.19083    0.66863    0.19543    1.000
    U27      U        0.29269    0.43448    0.16244    1.000
    S33      S        0.10008    0.57946    0.86710    1.000
    S34      S        0.22570    0.54365    0.17341    1.000
    S35      S        0.07404    0.72887    0.82471    1.000
    S36      S        0.19203    0.78019    0.29206    1.000
    O145     O        0.99200    0.54190    0.79360    1.000
    O146     O        0.27150    0.51780    0.17720    1.000
    O147     O        0.10750    0.55200    0.92940    1.000
    O148     O        0.23520    0.59510    0.16650    1.000
    O149     O        0.05270    0.60220    0.87210    1.000
    O150     O        0.19770    0.74890    0.23250    1.000
    O151     O        0.19780    0.53520    0.23570    1.000
    O152     O        0.08770    0.75170    0.88740    1.000
    O153     O        0.05890    0.76530    0.77490    1.000
    O154     O        0.19820    0.52630    0.11500    1.000
    O155     O        0.14380    0.80070    0.29020    1.000
    O156     O        0.10090    0.54880    0.80790    1.000
    O157     O        0.03340    0.69660    0.83770    1.000
    O158     O        0.22610    0.82000    0.28250    1.000
    O159     O        0.11280    0.70120    0.79480    1.000
    O160     O        0.13670    0.61610    0.86230    1.000
    O161     O        0.20110    0.75560    0.35380    1.000
    O162     O        0.31470    0.47590    0.93970    1.000
    U28      U        0.49961    0.12856    0.28319    1.000
    U29      U        0.69083    0.16863    0.69543    1.000
    U30      U        0.79269    0.93448    0.66244    1.000
    S37      S        0.60008    0.07946    0.36710    1.000
    S38      S        0.72570    0.04365    0.67341    1.000
    S39      S        0.57404    0.22887    0.32471    1.000
    S40      S        0.69203    0.28019    0.79206    1.000
    O163     O        0.49200    0.04190    0.29360    1.000
    O164     O        0.77150    0.01780    0.67720    1.000
    O165     O        0.60750    0.05200    0.42940    1.000
    O166     O        0.73520    0.09510    0.66650    1.000
    O167     O        0.55270    0.10220    0.37210    1.000
    O168     O        0.69770    0.24890    0.73250    1.000
    O169     O        0.69780    0.03520    0.73570    1.000
    O170     O        0.58770    0.25170    0.38740    1.000
    O171     O        0.55890    0.26530    0.27490    1.000
    O172     O        0.69820    0.02630    0.61500    1.000
    O173     O        0.64380    0.30070    0.79020    1.000
    O174     O        0.60090    0.04880    0.30790    1.000
    O175     O        0.53340    0.19660    0.33770    1.000
    O176     O        0.72610    0.32000    0.78250    1.000
    O177     O        0.61280    0.20120    0.29480    1.000
    O178     O        0.63670    0.11610    0.36230    1.000
    O179     O        0.70110    0.25560    0.85380    1.000
    O180     O        0.81470    0.97590    0.43970    1.000
    U31      U        0.00039    0.37144    0.78319    1.000
    U32      U        0.80917    0.33137    0.19543    1.000
    U33      U        0.70731    0.56552    0.16244    1.000
    S41      S        0.89992    0.42054    0.86710    1.000
    S42      S        0.77430    0.45635    0.17341    1.000
    S43      S        0.92596    0.27113    0.82471    1.000
    S44      S        0.80797    0.21981    0.29206    1.000
    O181     O        0.00800    0.45810    0.79360    1.000
    O182     O        0.72850    0.48220    0.17720    1.000
    O183     O        0.89250    0.44800    0.92940    1.000
    O184     O        0.76480    0.40490    0.16650    1.000
    O185     O        0.94730    0.39780    0.87210    1.000
    O186     O        0.80230    0.25110    0.23250    1.000
    O187     O        0.80220    0.46480    0.23570    1.000
    O188     O        0.91230    0.24830    0.88740    1.000
    O189     O        0.94110    0.23470    0.77490    1.000
    O190     O        0.80180    0.47370    0.11500    1.000
    O191     O        0.85620    0.19930    0.29020    1.000
    O192     O        0.89910    0.45120    0.80790    1.000
    O193     O        0.96660    0.30340    0.83770    1.000
    O194     O        0.77390    0.18000    0.28250    1.000
    O195     O        0.88720    0.29880    0.79480    1.000
    O196     O        0.86330    0.38390    0.86230    1.000
    O197     O        0.79890    0.24440    0.35380    1.000
    O198     O        0.68530    0.52410    0.93970    1.000
    U34      U        0.50039    0.87144    0.28319    1.000
    U35      U        0.30917    0.83137    0.69543    1.000
    U36      U        0.20731    0.06552    0.66244    1.000
    S45      S        0.39992    0.92054    0.36710    1.000
    S46      S        0.27430    0.95635    0.67341    1.000
    S47      S        0.42596    0.77113    0.32471    1.000
    S48      S        0.30797    0.71981    0.79206    1.000
    O199     O        0.50800    0.95810    0.29360    1.000
    O200     O        0.22850    0.98220    0.67720    1.000
    O201     O        0.39250    0.94800    0.42940    1.000
    O202     O        0.26480    0.90490    0.66650    1.000
    O203     O        0.44730    0.89780    0.37210    1.000
    O204     O        0.30230    0.75110    0.73250    1.000
    O205     O        0.30220    0.96480    0.73570    1.000
    O206     O        0.41230    0.74830    0.38740    1.000
    O207     O        0.44110    0.73470    0.27490    1.000
    O208     O        0.30180    0.97370    0.61500    1.000
    O209     O        0.35620    0.69930    0.79020    1.000
    O210     O        0.39910    0.95120    0.30790    1.000
    O211     O        0.46660    0.80340    0.33770    1.000
    O212     O        0.27390    0.68000    0.78250    1.000
    O213     O        0.38720    0.79880    0.29480    1.000
    O214     O        0.36330    0.88390    0.36230    1.000
    O215     O        0.29890    0.74440    0.85380    1.000
    O216     O        0.18530    0.02410    0.43970    1.000
    U37      U        0.37144    0.99961    0.78319    1.000
    U38      U        0.33137    0.19083    0.19543    1.000
    U39      U        0.56552    0.29269    0.16244    1.000
    S49      S        0.42054    0.10008    0.86710    1.000
    S50      S        0.45635    0.22570    0.17341    1.000
    S51      S        0.27113    0.07404    0.82471    1.000
    S52      S        0.21981    0.19203    0.29206    1.000
    O217     O        0.45810    0.99200    0.79360    1.000
    O218     O        0.48220    0.27150    0.17720    1.000
    O219     O        0.44800    0.10750    0.92940    1.000
    O220     O        0.40490    0.23520    0.16650    1.000
    O221     O        0.39780    0.05270    0.87210    1.000
    O222     O        0.25110    0.19770    0.23250    1.000
    O223     O        0.46480    0.19780    0.23570    1.000
    O224     O        0.24830    0.08770    0.88740    1.000
    O225     O        0.23470    0.05890    0.77490    1.000
    O226     O        0.47370    0.19820    0.11500    1.000
    O227     O        0.19930    0.14380    0.29020    1.000
    O228     O        0.45120    0.10090    0.80790    1.000
    O229     O        0.30340    0.03340    0.83770    1.000
    O230     O        0.18000    0.22610    0.28250    1.000
    O231     O        0.29880    0.11280    0.79480    1.000
    O232     O        0.38390    0.13670    0.86230    1.000
    O233     O        0.24440    0.20110    0.35380    1.000
    O234     O        0.52410    0.31470    0.93970    1.000
    U40      U        0.87144    0.49961    0.28319    1.000
    U41      U        0.83137    0.69083    0.69543    1.000
    U42      U        0.06552    0.79269    0.66244    1.000
    S53      S        0.92054    0.60008    0.36710    1.000
    S54      S        0.95635    0.72570    0.67341    1.000
    S55      S        0.77113    0.57404    0.32471    1.000
    S56      S        0.71981    0.69203    0.79206    1.000
    O235     O        0.95810    0.49200    0.29360    1.000
    O236     O        0.98220    0.77150    0.67720    1.000
    O237     O        0.94800    0.60750    0.42940    1.000
    O238     O        0.90490    0.73520    0.66650    1.000
    O239     O        0.89780    0.55270    0.37210    1.000
    O240     O        0.75110    0.69770    0.73250    1.000
    O241     O        0.96480    0.69780    0.73570    1.000
    O242     O        0.74830    0.58770    0.38740    1.000
    O243     O        0.73470    0.55890    0.27490    1.000
    O244     O        0.97370    0.69820    0.61500    1.000
    O245     O        0.69930    0.64380    0.79020    1.000
    O246     O        0.95120    0.60090    0.30790    1.000
    O247     O        0.80340    0.53340    0.33770    1.000
    O248     O        0.68000    0.72610    0.78250    1.000
    O249     O        0.79880    0.61280    0.29480    1.000
    O250     O        0.88390    0.63670    0.36230    1.000
    O251     O        0.74440    0.70110    0.85380    1.000
    O252     O        0.02410    0.81470    0.43970    1.000
    U43      U        0.62856    0.00039    0.78319    1.000
    U44      U        0.66863    0.80917    0.19543    1.000
    U45      U        0.43448    0.70731    0.16244    1.000
    S57      S        0.57946    0.89992    0.86710    1.000
    S58      S        0.54365    0.77430    0.17341    1.000
    S59      S        0.72887    0.92596    0.82471    1.000
    S60      S        0.78019    0.80797    0.29206    1.000
    O253     O        0.54190    0.00800    0.79360    1.000
    O254     O        0.51780    0.72850    0.17720    1.000
    O255     O        0.55200    0.89250    0.92940    1.000
    O256     O        0.59510    0.76480    0.16650    1.000
    O257     O        0.60220    0.94730    0.87210    1.000
    O258     O        0.74890    0.80230    0.23250    1.000
    O259     O        0.53520    0.80220    0.23570    1.000
    O260     O        0.75170    0.91230    0.88740    1.000
    O261     O        0.76530    0.94110    0.77490    1.000
    O262     O        0.52630    0.80180    0.11500    1.000
    O263     O        0.80070    0.85620    0.29020    1.000
    O264     O        0.54880    0.89910    0.80790    1.000
    O265     O        0.69660    0.96660    0.83770    1.000
    O266     O        0.82000    0.77390    0.28250    1.000
    O267     O        0.70120    0.88720    0.79480    1.000
    O268     O        0.61610    0.86330    0.86230    1.000
    O269     O        0.75560    0.79890    0.35380    1.000
    O270     O        0.47590    0.68530    0.93970    1.000
    U46      U        0.12856    0.50039    0.28319    1.000
    U47      U        0.16863    0.30917    0.69543    1.000
    U48      U        0.93448    0.20731    0.66244    1.000
    S61      S        0.07946    0.39992    0.36710    1.000
    S62      S        0.04365    0.27430    0.67341    1.000
    S63      S        0.22887    0.42596    0.32471    1.000
    S64      S        0.28019    0.30797    0.79206    1.000
    O271     O        0.04190    0.50800    0.29360    1.000
    O272     O        0.01780    0.22850    0.67720    1.000
    O273     O        0.05200    0.39250    0.42940    1.000
    O274     O        0.09510    0.26480    0.66650    1.000
    O275     O        0.10220    0.44730    0.37210    1.000
    O276     O        0.24890    0.30230    0.73250    1.000
    O277     O        0.03520    0.30220    0.73570    1.000
    O278     O        0.25170    0.41230    0.38740    1.000
    O279     O        0.26530    0.44110    0.27490    1.000
    O280     O        0.02630    0.30180    0.61500    1.000
    O281     O        0.30070    0.35620    0.79020    1.000
    O282     O        0.04880    0.39910    0.30790    1.000
    O283     O        0.19660    0.46660    0.33770    1.000
    O284     O        0.32000    0.27390    0.78250    1.000
    O285     O        0.20120    0.38720    0.29480    1.000
    O286     O        0.11610    0.36330    0.36230    1.000
    O287     O        0.25560    0.29890    0.85380    1.000
    O288     O        0.97590    0.18530    0.43970    1.000
    U49      U        0.82397    0.46495    0.00000    1.000
    S65      S        0.69719    0.49899    0.00000    1.000
    O289     O        0.74470    0.48690    0.00000    1.000
    O290     O        0.66490    0.46050    0.00000    1.000
    U50      U        0.32397    0.96495    0.50000    1.000
    S66      S        0.19719    0.99899    0.50000    1.000
    O291     O        0.24470    0.98690    0.50000    1.000
    O292     O        0.16490    0.96050    0.50000    1.000
    U51      U        0.17603    0.53505    0.00000    1.000
    S67      S        0.30281    0.50101    0.00000    1.000
    O293     O        0.25530    0.51310    0.00000    1.000
    O294     O        0.33510    0.53950    0.00000    1.000
    U52      U        0.67603    0.03505    0.50000    1.000
    S68      S        0.80281    0.00101    0.50000    1.000
    O295     O        0.75530    0.01310    0.50000    1.000
    O296     O        0.83510    0.03950    0.50000    1.000
    U53      U        0.53505    0.82397    0.00000    1.000
    S69      S        0.50101    0.69719    0.00000    1.000
    O297     O        0.51310    0.74470    0.00000    1.000
    O298     O        0.53950    0.66490    0.00000    1.000
    U54      U        0.03505    0.32397    0.50000    1.000
    S70      S        0.00101    0.19719    0.50000    1.000
    O299     O        0.01310    0.24470    0.50000    1.000
    O300     O        0.03950    0.16490    0.50000    1.000
    U55      U        0.46495    0.17603    0.00000    1.000
    S71      S        0.49899    0.30281    0.00000    1.000
    O301     O        0.48690    0.25530    0.00000    1.000
    O302     O        0.46050    0.33510    0.00000    1.000
    U56      U        0.96495    0.67603    0.50000    1.000
    S72      S        0.99899    0.80281    0.50000    1.000
    O303     O        0.98690    0.75530    0.50000    1.000
    O304     O        0.96050    0.83510    0.50000    1.000
    S73      S        0.00000    0.50000    0.25000    1.000
    S74      S        0.50000    0.00000    0.25000    1.000
    S75      S        0.00000    0.50000    0.75000    1.000
    S76      S        0.50000    0.00000    0.75000    1.000
