# CIF file generated by openbabel 3.1.0, see https://openbabel.org
data_I
_chemical_name_common 'image0'
_cell_length_a 13.3933
_cell_length_b 9.9035
_cell_length_c 23.7661
_cell_angle_alpha 90
_cell_angle_beta 98.036
_cell_angle_gamma 90
_space_group_name_H-M_alt 'P 1'
_space_group_name_Hall 'P 1'
loop_
    _symmetry_equiv_pos_as_xyz
    x,y,z
loop_
    _atom_site_label
    _atom_site_type_symbol
    _atom_site_fract_x
    _atom_site_fract_y
    _atom_site_fract_z
    _atom_site_occupancy
    Cu1      Cu       0.39009    0.03859    0.01091    1.000
    Cu2      Cu       0.57011    0.11753    0.11735    1.000
    S1       S        0.02963    0.97030    0.00252    1.000
    O1       O        0.24670    0.01110    0.99860    1.000
    O2       O        0.24450    0.23140    0.01350    1.000
    O3       O        0.81730    0.85000    0.98930    1.000
    O4       O        0.74410    0.04850    0.00340    1.000
    C1       C        0.20400    0.12480    0.00190    1.000
    C2       C        0.81790    0.97140    0.99480    1.000
    C3       C        0.09150    0.11760    0.99140    1.000
    C4       C        0.02490    0.22220    0.97850    1.000
    H1       H        0.04590    0.31220    0.97070    1.000
    C5       C        0.92290    0.18280    0.97820    1.000
    H2       H        0.86650    0.24270    0.96930    1.000
    C6       C        0.91360    0.05190    0.99150    1.000
    S2       S        0.73916    0.28657    0.33632    1.000
    O5       O        0.51950    0.11590    0.03771    1.000
    H3       H        0.52620    0.19510    0.02500    1.000
    O6       O        0.63034    0.09710    0.19732    1.000
    O7       O        0.58600    0.29250    0.23498    1.000
    O8       O        0.86687    0.36830    0.43784    1.000
    O9       O        0.94988    0.17450    0.45794    1.000
    N1       N        0.40320    0.92770    0.08451    1.000
    N2       N        0.47106    0.96400    0.12819    1.000
    N3       N        0.81190    0.80890    0.43514    1.000
    N4       N        0.80220    0.71000    0.39646    1.000
    C7       C        0.34440    0.82340    0.09110    1.000
    H4       H        0.29740    0.79590    0.05950    1.000
    C8       C        0.34700    0.75220    0.14086    1.000
    H5       H        0.30210    0.67880    0.14320    1.000
    C9       C        0.41480    0.78760    0.18708    1.000
    C10      C        0.47630    0.89680    0.17651    1.000
    H6       H        0.52590    0.92480    0.20670    1.000
    C11      C        0.72840    0.87040    0.44370    1.000
    H7       H        0.73390    0.94170    0.47070    1.000
    C12      C        0.63330    0.83930    0.41640    1.000
    H8       H        0.57630    0.88830    0.42480    1.000
    C13      C        0.62170    0.73800    0.37738    1.000
    C14      C        0.71240    0.67600    0.36922    1.000
    H9       H        0.70950    0.60470    0.34230    1.000
    C15      C        0.42000    0.72340    0.24462    1.000
    C16      C        0.51870    0.76030    0.28267    1.000
    H10      H        0.52390    0.85970    0.28640    1.000
    H11      H        0.57680    0.72800    0.26480    1.000
    C17      C        0.52280    0.69640    0.34227    1.000
    C18      C        0.51460    0.54230    0.33593    1.000
    H12      H        0.51700    0.50020    0.37390    1.000
    H13      H        0.57230    0.50760    0.31830    1.000
    C19      C        0.41490    0.50450    0.29860    1.000
    H14      H        0.41060    0.40410    0.29470    1.000
    C20      C        0.41340    0.56770    0.23961    1.000
    H15      H        0.35040    0.54200    0.21500    1.000
    H16      H        0.47100    0.53320    0.22190    1.000
    C21      C        0.33000    0.77260    0.27298    1.000
    H17      H        0.33250    0.87220    0.27670    1.000
    H18      H        0.26620    0.74820    0.24890    1.000
    C22      C        0.33270    0.70860    0.33175    1.000
    H19      H        0.27440    0.74240    0.34990    1.000
    C23      C        0.43140    0.74820    0.36829    1.000
    H20      H        0.43280    0.71010    0.40690    1.000
    H21      H        0.43510    0.84780    0.37170    1.000
    C24      C        0.32590    0.55490    0.32569    1.000
    H22      H        0.32650    0.51290    0.36350    1.000
    H23      H        0.26210    0.52970    0.30170    1.000
    C25      C        0.63760    0.18870    0.23549    1.000
    C26      C        0.88820    0.24750    0.42733    1.000
    C27      C        0.71660    0.16430    0.28492    1.000
    C28      C        0.77980    0.05690    0.29628    1.000
    H24      H        0.77890    0.97960    0.27260    1.000
    C29      C        0.84660    0.07350    0.34706    1.000
    H25      H        0.89540    0.00800    0.36140    1.000
    C30      C        0.83410    0.19170    0.37328    1.000
    O10      O        0.07140    0.37850    0.98680    1.000
    O11      O        0.08500    0.33460    0.93250    1.000
    Cu3      Cu       0.10991    0.53859    0.48909    1.000
    Cu4      Cu       0.92989    0.61753    0.38265    1.000
    S3       S        0.47037    0.47030    0.49748    1.000
    O12      O        0.25330    0.51110    0.50140    1.000
    O13      O        0.25550    0.73140    0.48650    1.000
    O14      O        0.68270    0.35000    0.51070    1.000
    O15      O        0.75590    0.54850    0.49660    1.000
    C31      C        0.29600    0.62480    0.49810    1.000
    C32      C        0.68210    0.47140    0.50520    1.000
    C33      C        0.40850    0.61760    0.50860    1.000
    C34      C        0.47510    0.72220    0.52150    1.000
    H26      H        0.45410    0.81220    0.52930    1.000
    C35      C        0.57710    0.68280    0.52180    1.000
    H27      H        0.63350    0.74270    0.53070    1.000
    C36      C        0.58640    0.55190    0.50850    1.000
    S4       S        0.76084    0.78657    0.16368    1.000
    O16      O        0.98050    0.61590    0.46229    1.000
    H28      H        0.97380    0.69510    0.47500    1.000
    O17      O        0.86966    0.59710    0.30268    1.000
    O18      O        0.91400    0.79250    0.26502    1.000
    O19      O        0.63313    0.86830    0.06216    1.000
    O20      O        0.55012    0.67450    0.04206    1.000
    N5       N        0.09680    0.42770    0.41549    1.000
    N6       N        0.02894    0.46400    0.37181    1.000
    N7       N        0.68810    0.30890    0.06486    1.000
    N8       N        0.69780    0.21000    0.10354    1.000
    C37      C        0.15560    0.32340    0.40890    1.000
    H29      H        0.20260    0.29590    0.44050    1.000
    C38      C        0.15300    0.25220    0.35914    1.000
    H30      H        0.19790    0.17880    0.35680    1.000
    C39      C        0.08520    0.28760    0.31292    1.000
    C40      C        0.02370    0.39680    0.32349    1.000
    H31      H        0.97410    0.42480    0.29330    1.000
    C41      C        0.77160    0.37040    0.05630    1.000
    H32      H        0.76610    0.44170    0.02930    1.000
    C42      C        0.86670    0.33930    0.08360    1.000
    H33      H        0.92370    0.38830    0.07520    1.000
    C43      C        0.87830    0.23800    0.12262    1.000
    C44      C        0.78760    0.17600    0.13078    1.000
    H34      H        0.79050    0.10470    0.15770    1.000
    C45      C        0.08000    0.22340    0.25538    1.000
    C46      C        0.98130    0.26030    0.21733    1.000
    H35      H        0.97610    0.35970    0.21360    1.000
    H36      H        0.92320    0.22800    0.23520    1.000
    C47      C        0.97720    0.19640    0.15773    1.000
    C48      C        0.98540    0.04230    0.16407    1.000
    H37      H        0.98300    0.00020    0.12610    1.000
    H38      H        0.92770    0.00760    0.18170    1.000
    C49      C        0.08510    0.00450    0.20140    1.000
    H39      H        0.08940    0.90410    0.20530    1.000
    C50      C        0.08660    0.06770    0.26039    1.000
    H40      H        0.14960    0.04200    0.28500    1.000
    H41      H        0.02900    0.03320    0.27810    1.000
    C51      C        0.17000    0.27260    0.22702    1.000
    H42      H        0.16750    0.37220    0.22330    1.000
    H43      H        0.23380    0.24820    0.25110    1.000
    C52      C        0.16730    0.20860    0.16825    1.000
    H44      H        0.22560    0.24240    0.15010    1.000
    C53      C        0.06860    0.24820    0.13171    1.000
    H45      H        0.06720    0.21010    0.09310    1.000
    H46      H        0.06490    0.34780    0.12830    1.000
    C54      C        0.17410    0.05490    0.17431    1.000
    H47      H        0.17350    0.01290    0.13650    1.000
    H48      H        0.23790    0.02970    0.19830    1.000
    C55      C        0.86240    0.68870    0.26451    1.000
    C56      C        0.61180    0.74750    0.07267    1.000
    C57      C        0.78340    0.66430    0.21508    1.000
    C58      C        0.72020    0.55690    0.20372    1.000
    H49      H        0.72110    0.47960    0.22740    1.000
    C59      C        0.65340    0.57350    0.15294    1.000
    H50      H        0.60460    0.50800    0.13860    1.000
    C60      C        0.66590    0.69170    0.12672    1.000
    O21      O        0.42860    0.87850    0.51320    1.000
    O22      O        0.41500    0.83460    0.56750    1.000
    Cu5      Cu       0.60991    0.96141    0.98909    1.000
    Cu6      Cu       0.42989    0.88247    0.88265    1.000
    S5       S        0.97037    0.02970    0.99748    1.000
    O23      O        0.75330    0.98890    0.00140    1.000
    O24      O        0.75550    0.76860    0.98650    1.000
    O25      O        0.18270    0.15000    0.01070    1.000
    O26      O        0.25590    0.95150    0.99660    1.000
    C61      C        0.79600    0.87520    0.99810    1.000
    C62      C        0.18210    0.02860    0.00520    1.000
    C63      C        0.90850    0.88240    0.00860    1.000
    C64      C        0.97510    0.77780    0.02150    1.000
    H51      H        0.95410    0.68780    0.02930    1.000
    C65      C        0.07710    0.81720    0.02180    1.000
    H52      H        0.13350    0.75730    0.03070    1.000
    C66      C        0.08640    0.94810    0.00850    1.000
    S6       S        0.26084    0.71343    0.66368    1.000
    O27      O        0.48050    0.88410    0.96229    1.000
    H53      H        0.47380    0.80490    0.97500    1.000
    O28      O        0.36966    0.90290    0.80268    1.000
    O29      O        0.41400    0.70750    0.76502    1.000
    O30      O        0.13313    0.63170    0.56216    1.000
    O31      O        0.05012    0.82550    0.54206    1.000
    N9       N        0.59680    0.07230    0.91549    1.000
    N10      N        0.52894    0.03600    0.87181    1.000
    N11      N        0.18810    0.19110    0.56486    1.000
    N12      N        0.19780    0.29000    0.60354    1.000
    C67      C        0.65560    0.17660    0.90890    1.000
    H54      H        0.70260    0.20410    0.94050    1.000
    C68      C        0.65300    0.24780    0.85914    1.000
    H55      H        0.69790    0.32120    0.85680    1.000
    C69      C        0.58520    0.21240    0.81292    1.000
    C70      C        0.52370    0.10320    0.82349    1.000
    H56      H        0.47410    0.07520    0.79330    1.000
    C71      C        0.27160    0.12960    0.55630    1.000
    H57      H        0.26610    0.05830    0.52930    1.000
    C72      C        0.36670    0.16070    0.58360    1.000
    H58      H        0.42370    0.11170    0.57520    1.000
    C73      C        0.37830    0.26200    0.62262    1.000
    C74      C        0.28760    0.32400    0.63078    1.000
    H59      H        0.29050    0.39530    0.65770    1.000
    C75      C        0.58000    0.27660    0.75538    1.000
    C76      C        0.48130    0.23970    0.71733    1.000
    H60      H        0.47610    0.14030    0.71360    1.000
    H61      H        0.42320    0.27200    0.73520    1.000
    C77      C        0.47720    0.30360    0.65773    1.000
    C78      C        0.48540    0.45770    0.66407    1.000
    H62      H        0.48300    0.49980    0.62610    1.000
    H63      H        0.42770    0.49240    0.68170    1.000
    C79      C        0.58510    0.49550    0.70140    1.000
    H64      H        0.58940    0.59590    0.70530    1.000
    C80      C        0.58660    0.43230    0.76039    1.000
    H65      H        0.64960    0.45800    0.78500    1.000
    H66      H        0.52900    0.46680    0.77810    1.000
    C81      C        0.67000    0.22740    0.72702    1.000
    H67      H        0.66750    0.12780    0.72330    1.000
    H68      H        0.73380    0.25180    0.75110    1.000
    C82      C        0.66730    0.29140    0.66825    1.000
    H69      H        0.72560    0.25760    0.65010    1.000
    C83      C        0.56860    0.25180    0.63171    1.000
    H70      H        0.56720    0.28990    0.59310    1.000
    H71      H        0.56490    0.15220    0.62830    1.000
    C84      C        0.67410    0.44510    0.67431    1.000
    H72      H        0.67350    0.48710    0.63650    1.000
    H73      H        0.73790    0.47030    0.69830    1.000
    C85      C        0.36240    0.81130    0.76451    1.000
    C86      C        0.11180    0.75250    0.57267    1.000
    C87      C        0.28340    0.83570    0.71508    1.000
    C88      C        0.22020    0.94310    0.70372    1.000
    H74      H        0.22110    0.02040    0.72740    1.000
    C89      C        0.15340    0.92650    0.65294    1.000
    H75      H        0.10460    0.99200    0.63860    1.000
    C90      C        0.16590    0.80830    0.62672    1.000
    O32      O        0.92860    0.62150    0.01320    1.000
    O33      O        0.91500    0.66540    0.06750    1.000
    Cu7      Cu       0.89009    0.46141    0.51091    1.000
    Cu8      Cu       0.07011    0.38247    0.61735    1.000
    S7       S        0.52963    0.52970    0.50252    1.000
    O34      O        0.74670    0.48890    0.49860    1.000
    O35      O        0.74450    0.26860    0.51350    1.000
    O36      O        0.31730    0.65000    0.48930    1.000
    O37      O        0.24410    0.45150    0.50340    1.000
    C91      C        0.70400    0.37520    0.50190    1.000
    C92      C        0.31790    0.52860    0.49480    1.000
    C93      C        0.59150    0.38240    0.49140    1.000
    C94      C        0.52490    0.27780    0.47850    1.000
    H76      H        0.54590    0.18780    0.47070    1.000
    C95      C        0.42290    0.31720    0.47820    1.000
    H77      H        0.36650    0.25730    0.46930    1.000
    C96      C        0.41360    0.44810    0.49150    1.000
    S8       S        0.23916    0.21343    0.83632    1.000
    O38      O        0.01950    0.38410    0.53771    1.000
    H78      H        0.02620    0.30490    0.52500    1.000
    O39      O        0.13034    0.40290    0.69732    1.000
    O40      O        0.08600    0.20750    0.73498    1.000
    O41      O        0.36687    0.13170    0.93784    1.000
    O42      O        0.44988    0.32550    0.95794    1.000
    N13      N        0.90320    0.57230    0.58451    1.000
    N14      N        0.97106    0.53600    0.62819    1.000
    N15      N        0.31190    0.69110    0.93514    1.000
    N16      N        0.30220    0.79000    0.89646    1.000
    C97      C        0.84440    0.67660    0.59110    1.000
    H79      H        0.79740    0.70410    0.55950    1.000
    C98      C        0.84700    0.74780    0.64086    1.000
    H80      H        0.80210    0.82120    0.64320    1.000
    C99      C        0.91480    0.71240    0.68708    1.000
    C100     C        0.97630    0.60320    0.67651    1.000
    H81      H        0.02590    0.57520    0.70670    1.000
    C101     C        0.22840    0.62960    0.94370    1.000
    H82      H        0.23390    0.55830    0.97070    1.000
    C102     C        0.13330    0.66070    0.91640    1.000
    H83      H        0.07630    0.61170    0.92480    1.000
    C103     C        0.12170    0.76200    0.87738    1.000
    C104     C        0.21240    0.82400    0.86922    1.000
    H84      H        0.20950    0.89530    0.84230    1.000
    C105     C        0.92000    0.77660    0.74462    1.000
    C106     C        0.01870    0.73970    0.78267    1.000
    H85      H        0.02390    0.64030    0.78640    1.000
    H86      H        0.07680    0.77200    0.76480    1.000
    C107     C        0.02280    0.80360    0.84227    1.000
    C108     C        0.01460    0.95770    0.83593    1.000
    H87      H        0.01700    0.99980    0.87390    1.000
    H88      H        0.07230    0.99240    0.81830    1.000
    C109     C        0.91490    0.99550    0.79860    1.000
    H89      H        0.91060    0.09590    0.79470    1.000
    C110     C        0.91340    0.93230    0.73961    1.000
    H90      H        0.85040    0.95800    0.71500    1.000
    H91      H        0.97100    0.96680    0.72190    1.000
    C111     C        0.83000    0.72740    0.77298    1.000
    H92      H        0.83250    0.62780    0.77670    1.000
    H93      H        0.76620    0.75180    0.74890    1.000
    C112     C        0.83270    0.79140    0.83175    1.000
    H94      H        0.77440    0.75760    0.84990    1.000
    C113     C        0.93140    0.75180    0.86829    1.000
    H95      H        0.93280    0.78990    0.90690    1.000
    H96      H        0.93510    0.65220    0.87170    1.000
    C114     C        0.82590    0.94510    0.82569    1.000
    H97      H        0.82650    0.98710    0.86350    1.000
    H98      H        0.76210    0.97030    0.80170    1.000
    C115     C        0.13760    0.31130    0.73549    1.000
    C116     C        0.38820    0.25250    0.92733    1.000
    C117     C        0.21660    0.33570    0.78492    1.000
    C118     C        0.27980    0.44310    0.79628    1.000
    H99      H        0.27890    0.52040    0.77260    1.000
    C119     C        0.34660    0.42650    0.84706    1.000
    H100     H        0.39540    0.49200    0.86140    1.000
    C120     C        0.33410    0.30830    0.87328    1.000
    O43      O        0.57140    0.12150    0.48680    1.000
    O44      O        0.58500    0.16540    0.43250    1.000
