# CIF file generated by openbabel 3.1.0, see https://openbabel.org
data_I
_chemical_name_common 'image0'
_cell_length_a 9.6812
_cell_length_b 12.2892
_cell_length_c 15.7406
_cell_angle_alpha 88.977
_cell_angle_beta 77.463
_cell_angle_gamma 69.75
_space_group_name_H-M_alt 'P 1'
_space_group_name_Hall 'P 1'
loop_
    _symmetry_equiv_pos_as_xyz
    x,y,z
loop_
    _atom_site_label
    _atom_site_type_symbol
    _atom_site_fract_x
    _atom_site_fract_y
    _atom_site_fract_z
    _atom_site_occupancy
    Nd1      Nd       0.29837    0.97316    0.51569    1.000
    O1       O        0.15860    0.86660    0.60666    1.000
    O2       O        0.01490    0.76280    0.59312    1.000
    H1       H        0.98610    0.81300    0.55770    1.000
    O3       O        0.25570    0.05310    0.66238    1.000
    O4       O        0.46150    0.08200    0.59129    1.000
    O5       O        0.30400    0.13680    0.43780    1.000
    O6       O        0.51750    0.17450    0.42478    1.000
    O7       O        0.19720    0.90470    0.40907    1.000
    O8       O        0.96880    0.88990    0.45652    1.000
    C1       C        0.22940    0.54370    0.93820    1.000
    C2       C        0.26950    0.42260    0.94380    1.000
    C3       C        0.29040    0.37600    0.02310    1.000
    H2       H        0.32030    0.29400    0.02580    1.000
    C4       C        0.27020    0.44230    0.09910    1.000
    C5       C        0.22500    0.56340    0.09510    1.000
    C6       C        0.20800    0.60970    0.01420    1.000
    H3       H        0.18000    0.69160    0.01110    1.000
    C7       C        0.20050    0.60370    0.85750    1.000
    C8       C        0.12180    0.57100    0.80390    1.000
    H4       H        0.08830    0.50740    0.81800    1.000
    C9       C        0.09240    0.63000    0.73060    1.000
    H5       H        0.03800    0.60740    0.69500    1.000
    C10      C        0.14230    0.72310    0.70840    1.000
    C11      C        0.22070    0.75720    0.76090    1.000
    H6       H        0.25510    0.82020    0.74620    1.000
    C12      C        0.24820    0.69790    0.83520    1.000
    H7       H        0.30030    0.72180    0.87150    1.000
    C13      C        0.10810    0.78980    0.63190    1.000
    C14      C        0.29560    0.33950    0.86900    1.000
    C15      C        0.40410    0.32830    0.79320    1.000
    H8       H        0.46270    0.37720    0.78650    1.000
    C16      C        0.42870    0.24680    0.72670    1.000
    H9       H        0.50780    0.23730    0.67660    1.000
    C17      C        0.33940    0.17910    0.73270    1.000
    C18      C        0.22770    0.19030    0.80840    1.000
    H10      H        0.16490    0.14480    0.81300    1.000
    C19      C        0.20770    0.26810    0.87720    1.000
    H11      H        0.13480    0.27290    0.92950    1.000
    C20      C        0.35340    0.09810    0.65850    1.000
    C21      C        0.30160    0.37860    0.17890    1.000
    C22      C        0.25850    0.28300    0.19810    1.000
    H12      H        0.20830    0.25900    0.16050    1.000
    C23      C        0.28630    0.22200    0.27000    1.000
    H13      H        0.25250    0.15840    0.28270    1.000
    C24      C        0.36360    0.25270    0.32450    1.000
    C25      C        0.41340    0.34490    0.30430    1.000
    H14      H        0.47040    0.36460    0.33960    1.000
    C26      C        0.38110    0.40870    0.23300    1.000
    H15      H        0.41310    0.47340    0.22100    1.000
    C27      C        0.39740    0.18330    0.40230    1.000
    C28      C        0.18620    0.64530    0.17180    1.000
    C29      C        0.08750    0.63680    0.24840    1.000
    H16      H        0.04540    0.57710    0.25170    1.000
    C30      C        0.04980    0.71480    0.32030    1.000
    H17      H        0.97810    0.71050    0.37090    1.000
    C31      C        0.11660    0.79900    0.31820    1.000
    C32      C        0.21510    0.80830    0.24150    1.000
    H18      H        0.26090    0.86570    0.23900    1.000
    C33      C        0.24620    0.73420    0.16900    1.000
    H19      H        0.30950    0.74390    0.11630    1.000
    C34      C        0.09260    0.87120    0.39960    1.000
    Nd2      Nd       0.70163    0.02684    0.48431    1.000
    O9       O        0.84140    0.13340    0.39334    1.000
    O10      O        0.98510    0.23720    0.40688    1.000
    H20      H        0.01390    0.18700    0.44230    1.000
    O11      O        0.74430    0.94690    0.33762    1.000
    O12      O        0.53850    0.91800    0.40871    1.000
    O13      O        0.69600    0.86320    0.56220    1.000
    O14      O        0.48250    0.82550    0.57522    1.000
    O15      O        0.80280    0.09530    0.59093    1.000
    O16      O        0.03120    0.11010    0.54348    1.000
    C35      C        0.77060    0.45630    0.06180    1.000
    C36      C        0.73050    0.57740    0.05620    1.000
    C37      C        0.70960    0.62400    0.97690    1.000
    H21      H        0.67970    0.70600    0.97420    1.000
    C38      C        0.72980    0.55770    0.90090    1.000
    C39      C        0.77500    0.43660    0.90490    1.000
    C40      C        0.79200    0.39030    0.98580    1.000
    H22      H        0.82000    0.30840    0.98890    1.000
    C41      C        0.79950    0.39630    0.14250    1.000
    C42      C        0.87820    0.42900    0.19610    1.000
    H23      H        0.91170    0.49260    0.18200    1.000
    C43      C        0.90760    0.37000    0.26940    1.000
    H24      H        0.96200    0.39260    0.30500    1.000
    C44      C        0.85770    0.27690    0.29160    1.000
    C45      C        0.77930    0.24280    0.23910    1.000
    H25      H        0.74490    0.17980    0.25380    1.000
    C46      C        0.75180    0.30210    0.16480    1.000
    H26      H        0.69970    0.27820    0.12850    1.000
    C47      C        0.89190    0.21020    0.36810    1.000
    C48      C        0.70440    0.66050    0.13100    1.000
    C49      C        0.59590    0.67170    0.20680    1.000
    H27      H        0.53730    0.62280    0.21350    1.000
    C50      C        0.57130    0.75320    0.27330    1.000
    H28      H        0.49220    0.76270    0.32340    1.000
    C51      C        0.66060    0.82090    0.26730    1.000
    C52      C        0.77230    0.80970    0.19160    1.000
    H29      H        0.83510    0.85520    0.18700    1.000
    C53      C        0.79230    0.73190    0.12280    1.000
    H30      H        0.86520    0.72710    0.07050    1.000
    C54      C        0.64660    0.90190    0.34150    1.000
    C55      C        0.69840    0.62140    0.82110    1.000
    C56      C        0.74150    0.71700    0.80190    1.000
    H31      H        0.79170    0.74100    0.83950    1.000
    C57      C        0.71370    0.77800    0.73000    1.000
    H32      H        0.74750    0.84160    0.71730    1.000
    C58      C        0.63640    0.74730    0.67550    1.000
    C59      C        0.58660    0.65510    0.69570    1.000
    H33      H        0.52960    0.63540    0.66040    1.000
    C60      C        0.61890    0.59130    0.76700    1.000
    H34      H        0.58690    0.52660    0.77900    1.000
    C61      C        0.60260    0.81670    0.59770    1.000
    C62      C        0.81380    0.35470    0.82820    1.000
    C63      C        0.91250    0.36320    0.75160    1.000
    H35      H        0.95460    0.42290    0.74830    1.000
    C64      C        0.95020    0.28520    0.67970    1.000
    H36      H        0.02190    0.28950    0.62910    1.000
    C65      C        0.88340    0.20100    0.68180    1.000
    C66      C        0.78490    0.19170    0.75850    1.000
    H37      H        0.73910    0.13430    0.76100    1.000
    C67      C        0.75380    0.26580    0.83100    1.000
    H38      H        0.69050    0.25610    0.88370    1.000
    C68      C        0.90740    0.12880    0.60040    1.000
    C69      C        0.18870    0.97330    0.93280    1.000
    C70      C        0.29480    0.98170    0.97810    1.000
    C71      C        0.24810    0.00840    0.06800    1.000
    C72      C        0.09900    0.02650    0.11130    1.000
    C73      C        0.99530    0.01800    0.06510    1.000
    C74      C        0.03910    0.99120    0.97480    1.000
    C75      C        0.45510    0.96330    0.93000    1.000
    C76      C        0.92690    0.98160    0.92460    1.000
    H39      H        0.21890    0.95540    0.87290    1.000
    H40      H        0.31670    0.01410    0.09940    1.000
    H41      H        0.06890    0.04430    0.17110    1.000
    H42      H        0.89620    0.03030    0.09440    1.000
    H43      H        0.50080    0.88660    0.90200    1.000
    H44      H        0.45440    0.01970    0.88690    1.000
    H45      H        0.51210    0.97210    0.97060    1.000
    H46      H        0.91700    0.03740    0.88080    1.000
    H47      H        0.96170    0.90470    0.89720    1.000
    H48      H        0.83040    0.99650    0.96380    1.000
    C77      C        0.29540    0.02130    0.08050    1.000
    C78      C        0.44660    0.00130    0.03920    1.000
    C79      C        0.49500    0.96310    0.95100    1.000
    C80      C        0.24540    0.96530    0.94790    1.000
    C81      C        0.39490    0.94510    0.90570    1.000
    C82      C        0.19350    0.00390    0.03630    1.000
    C83      C        0.55390    0.01970    0.08960    1.000
    C84      C        0.03110    0.02610    0.08220    1.000
    H49      H        0.26200    0.04690    0.13910    1.000
    H50      H        0.59470    0.94960    0.92230    1.000
    H51      H        0.17950    0.95300    0.91730    1.000
    H52      H        0.42830    0.91960    0.84710    1.000
    H53      H        0.51680    0.09920    0.11210    1.000
    H54      H        0.56100    0.96940    0.13710    1.000
    H55      H        0.65200    0.00220    0.05160    1.000
    H56      H        0.02820    0.97690    0.13010    1.000
    H57      H        0.98370    0.10600    0.10380    1.000
    H58      H        0.97820    0.00960    0.04200    1.000
    C85      C        0.81130    0.02670    0.06720    1.000
    C86      C        0.70520    0.01830    0.02190    1.000
    C87      C        0.75190    0.99160    0.93200    1.000
    C88      C        0.90100    0.97350    0.88870    1.000
    C89      C        0.00470    0.98200    0.93490    1.000
    C90      C        0.96090    0.00880    0.02520    1.000
    C91      C        0.54490    0.03670    0.07000    1.000
    C92      C        0.07310    0.01840    0.07540    1.000
    H59      H        0.78110    0.04460    0.12710    1.000
    H60      H        0.68330    0.98590    0.90060    1.000
    H61      H        0.93110    0.95570    0.82890    1.000
    H62      H        0.10380    0.96970    0.90560    1.000
    H63      H        0.49920    0.11340    0.09800    1.000
    H64      H        0.54560    0.98030    0.11310    1.000
    H65      H        0.48790    0.02790    0.02940    1.000
    H66      H        0.08300    0.96260    0.11920    1.000
    H67      H        0.03830    0.09530    0.10280    1.000
    H68      H        0.16960    0.00350    0.03620    1.000
    C93      C        0.70460    0.97870    0.91950    1.000
    C94      C        0.55340    0.99870    0.96080    1.000
    C95      C        0.50500    0.03690    0.04900    1.000
    C96      C        0.75460    0.03470    0.05210    1.000
    C97      C        0.60510    0.05490    0.09430    1.000
    C98      C        0.80650    0.99610    0.96370    1.000
    C99      C        0.44610    0.98030    0.91040    1.000
    C100     C        0.96890    0.97390    0.91780    1.000
    H69      H        0.73800    0.95310    0.86090    1.000
    H70      H        0.40530    0.05040    0.07770    1.000
    H71      H        0.82050    0.04700    0.08270    1.000
    H72      H        0.57170    0.08040    0.15290    1.000
    H73      H        0.48320    0.90080    0.88790    1.000
    H74      H        0.43900    0.03060    0.86290    1.000
    H75      H        0.34800    0.99780    0.94840    1.000
    H76      H        0.97180    0.02310    0.86990    1.000
    H77      H        0.01630    0.89400    0.89620    1.000
    H78      H        0.02180    0.99040    0.95800    1.000
