# CIF file generated by openbabel 3.1.0, see https://openbabel.org
data_I
_chemical_name_common 'image0'
_cell_length_a 28.0614
_cell_length_b 30.0942
_cell_length_c 30.0947
_cell_angle_alpha 90
_cell_angle_beta 90
_cell_angle_gamma 90
_space_group_name_H-M_alt 'P 1'
_space_group_name_Hall 'P 1'
loop_
    _symmetry_equiv_pos_as_xyz
    x,y,z
loop_
    _atom_site_label
    _atom_site_type_symbol
    _atom_site_fract_x
    _atom_site_fract_y
    _atom_site_fract_z
    _atom_site_occupancy
    O1       O        0.97800    0.93570    0.20990    1.000
    O2       O        0.93660    0.97680    0.21370    1.000
    C1       C        0.98270    0.91600    0.24860    1.000
    C2       C        0.97680    0.86880    0.25100    1.000
    C3       C        0.91660    0.98430    0.25240    1.000
    C4       C        0.86490    0.97920    0.25110    1.000
    C5       C        0.96640    0.77060    0.25120    1.000
    C6       C        0.94730    0.80150    0.21710    1.000
    C7       C        0.84700    0.95600    0.21440    1.000
    O3       O        0.89900    0.74440    0.18540    1.000
    O4       O        0.93650    0.80490    0.15290    1.000
    N1       N        0.91610    0.78470    0.17930    1.000
    C8       C        0.80200    0.95130    0.21560    1.000
    C9       C        0.77870    0.96930    0.25200    1.000
    C10      C        0.95040    0.84780    0.21480    1.000
    O5       O        0.97800    0.43570    0.70990    1.000
    O6       O        0.93660    0.47680    0.71370    1.000
    C11      C        0.98270    0.41600    0.74860    1.000
    C12      C        0.97680    0.36880    0.75100    1.000
    C13      C        0.91660    0.48430    0.75240    1.000
    C14      C        0.86490    0.47920    0.75110    1.000
    C15      C        0.96640    0.27060    0.75120    1.000
    C16      C        0.94730    0.30150    0.71710    1.000
    C17      C        0.84700    0.45600    0.71440    1.000
    O7       O        0.89900    0.24440    0.68540    1.000
    O8       O        0.93650    0.30490    0.65290    1.000
    N2       N        0.91610    0.28470    0.67930    1.000
    C18      C        0.80200    0.45130    0.71560    1.000
    C19      C        0.77870    0.46930    0.75200    1.000
    C20      C        0.95040    0.34780    0.71480    1.000
    O9       O        0.47800    0.93570    0.70990    1.000
    O10      O        0.43660    0.97680    0.71370    1.000
    C21      C        0.48270    0.91600    0.74860    1.000
    C22      C        0.47680    0.86880    0.75100    1.000
    C23      C        0.41660    0.98430    0.75240    1.000
    C24      C        0.36490    0.97920    0.75110    1.000
    C25      C        0.46640    0.77060    0.75120    1.000
    C26      C        0.44730    0.80150    0.71710    1.000
    C27      C        0.34700    0.95600    0.71440    1.000
    O11      O        0.39900    0.74440    0.68540    1.000
    O12      O        0.43650    0.80490    0.65290    1.000
    N3       N        0.41610    0.78470    0.67930    1.000
    C28      C        0.30200    0.95130    0.71560    1.000
    C29      C        0.27870    0.96930    0.75200    1.000
    C30      C        0.45040    0.84780    0.71480    1.000
    O13      O        0.47800    0.43570    0.20990    1.000
    O14      O        0.43660    0.47680    0.21370    1.000
    C31      C        0.48270    0.41600    0.24860    1.000
    C32      C        0.47680    0.36880    0.25100    1.000
    C33      C        0.41660    0.48430    0.25240    1.000
    C34      C        0.36490    0.47920    0.25110    1.000
    C35      C        0.46640    0.27060    0.25120    1.000
    C36      C        0.44730    0.30150    0.21710    1.000
    C37      C        0.34700    0.45600    0.21440    1.000
    O15      O        0.39900    0.24440    0.18540    1.000
    O16      O        0.43650    0.30490    0.15290    1.000
    N4       N        0.41610    0.28470    0.17930    1.000
    C38      C        0.30200    0.45130    0.21560    1.000
    C39      C        0.27870    0.46930    0.25200    1.000
    C40      C        0.45040    0.34780    0.21480    1.000
    O17      O        0.02200    0.06430    0.20990    1.000
    O18      O        0.06340    0.02320    0.21370    1.000
    C41      C        0.01730    0.08400    0.24860    1.000
    C42      C        0.02320    0.13120    0.25100    1.000
    C43      C        0.08340    0.01570    0.25240    1.000
    C44      C        0.13510    0.02080    0.25110    1.000
    C45      C        0.03360    0.22940    0.25120    1.000
    C46      C        0.05270    0.19850    0.21710    1.000
    C47      C        0.15300    0.04400    0.21440    1.000
    O19      O        0.10100    0.25560    0.18540    1.000
    O20      O        0.06350    0.19510    0.15290    1.000
    N5       N        0.08390    0.21530    0.17930    1.000
    C48      C        0.19800    0.04870    0.21560    1.000
    C49      C        0.22130    0.03070    0.25200    1.000
    C50      C        0.04960    0.15220    0.21480    1.000
    O21      O        0.02200    0.56430    0.70990    1.000
    O22      O        0.06340    0.52320    0.71370    1.000
    C51      C        0.01730    0.58400    0.74860    1.000
    C52      C        0.02320    0.63120    0.75100    1.000
    C53      C        0.08340    0.51570    0.75240    1.000
    C54      C        0.13510    0.52080    0.75110    1.000
    C55      C        0.03360    0.72940    0.75120    1.000
    C56      C        0.05270    0.69850    0.71710    1.000
    C57      C        0.15300    0.54400    0.71440    1.000
    O23      O        0.10100    0.75560    0.68540    1.000
    O24      O        0.06350    0.69510    0.65290    1.000
    N6       N        0.08390    0.71530    0.67930    1.000
    C58      C        0.19800    0.54870    0.71560    1.000
    C59      C        0.22130    0.53070    0.75200    1.000
    C60      C        0.04960    0.65220    0.71480    1.000
    O25      O        0.52200    0.06430    0.70990    1.000
    O26      O        0.56340    0.02320    0.71370    1.000
    C61      C        0.51730    0.08400    0.74860    1.000
    C62      C        0.52320    0.13120    0.75100    1.000
    C63      C        0.58340    0.01570    0.75240    1.000
    C64      C        0.63510    0.02080    0.75110    1.000
    C65      C        0.53360    0.22940    0.75120    1.000
    C66      C        0.55270    0.19850    0.71710    1.000
    C67      C        0.65300    0.04400    0.71440    1.000
    O27      O        0.60100    0.25560    0.68540    1.000
    O28      O        0.56350    0.19510    0.65290    1.000
    N7       N        0.58390    0.21530    0.67930    1.000
    C68      C        0.69800    0.04870    0.71560    1.000
    C69      C        0.72130    0.03070    0.75200    1.000
    C70      C        0.54960    0.15220    0.71480    1.000
    O29      O        0.52200    0.56430    0.20990    1.000
    O30      O        0.56340    0.52320    0.21370    1.000
    C71      C        0.51730    0.58400    0.24860    1.000
    C72      C        0.52320    0.63120    0.25100    1.000
    C73      C        0.58340    0.51570    0.25240    1.000
    C74      C        0.63510    0.52080    0.25110    1.000
    C75      C        0.53360    0.72940    0.25120    1.000
    C76      C        0.55270    0.69850    0.21710    1.000
    C77      C        0.65300    0.54400    0.21440    1.000
    O31      O        0.60100    0.75560    0.18540    1.000
    O32      O        0.56350    0.69510    0.15290    1.000
    N8       N        0.58390    0.71530    0.17930    1.000
    C78      C        0.69800    0.54870    0.21560    1.000
    C79      C        0.72130    0.53070    0.25200    1.000
    C80      C        0.54960    0.65220    0.21480    1.000
    O33      O        0.02200    0.93570    0.79010    1.000
    O34      O        0.06340    0.97680    0.78630    1.000
    C81      C        0.01730    0.91600    0.75140    1.000
    C82      C        0.02320    0.86880    0.74900    1.000
    C83      C        0.08340    0.98430    0.74760    1.000
    C84      C        0.13510    0.97920    0.74890    1.000
    C85      C        0.03360    0.77060    0.74880    1.000
    C86      C        0.05270    0.80150    0.78290    1.000
    C87      C        0.15300    0.95600    0.78560    1.000
    O35      O        0.10100    0.74440    0.81460    1.000
    O36      O        0.06350    0.80490    0.84710    1.000
    N9       N        0.08390    0.78470    0.82070    1.000
    C88      C        0.19800    0.95130    0.78440    1.000
    C89      C        0.22130    0.96930    0.74800    1.000
    C90      C        0.04960    0.84780    0.78520    1.000
    O37      O        0.02200    0.43570    0.29010    1.000
    O38      O        0.06340    0.47680    0.28630    1.000
    C91      C        0.01730    0.41600    0.25140    1.000
    C92      C        0.02320    0.36880    0.24900    1.000
    C93      C        0.08340    0.48430    0.24760    1.000
    C94      C        0.13510    0.47920    0.24890    1.000
    C95      C        0.03360    0.27060    0.24880    1.000
    C96      C        0.05270    0.30150    0.28290    1.000
    C97      C        0.15300    0.45600    0.28560    1.000
    O39      O        0.10100    0.24440    0.31460    1.000
    O40      O        0.06350    0.30490    0.34710    1.000
    N10      N        0.08390    0.28470    0.32070    1.000
    C98      C        0.19800    0.45130    0.28440    1.000
    C99      C        0.22130    0.46930    0.24800    1.000
    C100     C        0.04960    0.34780    0.28520    1.000
    O41      O        0.52200    0.93570    0.29010    1.000
    O42      O        0.56340    0.97680    0.28630    1.000
    C101     C        0.51730    0.91600    0.25140    1.000
    C102     C        0.52320    0.86880    0.24900    1.000
    C103     C        0.58340    0.98430    0.24760    1.000
    C104     C        0.63510    0.97920    0.24890    1.000
    C105     C        0.53360    0.77060    0.24880    1.000
    C106     C        0.55270    0.80150    0.28290    1.000
    C107     C        0.65300    0.95600    0.28560    1.000
    O43      O        0.60100    0.74440    0.31460    1.000
    O44      O        0.56350    0.80490    0.34710    1.000
    N11      N        0.58390    0.78470    0.32070    1.000
    C108     C        0.69800    0.95130    0.28440    1.000
    C109     C        0.72130    0.96930    0.24800    1.000
    C110     C        0.54960    0.84780    0.28520    1.000
    O45      O        0.52200    0.43570    0.79010    1.000
    O46      O        0.56340    0.47680    0.78630    1.000
    C111     C        0.51730    0.41600    0.75140    1.000
    C112     C        0.52320    0.36880    0.74900    1.000
    C113     C        0.58340    0.48430    0.74760    1.000
    C114     C        0.63510    0.47920    0.74890    1.000
    C115     C        0.53360    0.27060    0.74880    1.000
    C116     C        0.55270    0.30150    0.78290    1.000
    C117     C        0.65300    0.45600    0.78560    1.000
    O47      O        0.60100    0.24440    0.81460    1.000
    O48      O        0.56350    0.30490    0.84710    1.000
    N12      N        0.58390    0.28470    0.82070    1.000
    C118     C        0.69800    0.45130    0.78440    1.000
    C119     C        0.72130    0.46930    0.74800    1.000
    C120     C        0.54960    0.34780    0.78520    1.000
    O49      O        0.97800    0.06430    0.79010    1.000
    O50      O        0.93660    0.02320    0.78630    1.000
    C121     C        0.98270    0.08400    0.75140    1.000
    C122     C        0.97680    0.13120    0.74900    1.000
    C123     C        0.91660    0.01570    0.74760    1.000
    C124     C        0.86490    0.02080    0.74890    1.000
    C125     C        0.96640    0.22940    0.74880    1.000
    C126     C        0.94730    0.19850    0.78290    1.000
    C127     C        0.84700    0.04400    0.78560    1.000
    O51      O        0.89900    0.25560    0.81460    1.000
    O52      O        0.93650    0.19510    0.84710    1.000
    N13      N        0.91610    0.21530    0.82070    1.000
    C128     C        0.80200    0.04870    0.78440    1.000
    C129     C        0.77870    0.03070    0.74800    1.000
    C130     C        0.95040    0.15220    0.78520    1.000
    O53      O        0.97800    0.56430    0.29010    1.000
    O54      O        0.93660    0.52320    0.28630    1.000
    C131     C        0.98270    0.58400    0.25140    1.000
    C132     C        0.97680    0.63120    0.24900    1.000
    C133     C        0.91660    0.51570    0.24760    1.000
    C134     C        0.86490    0.52080    0.24890    1.000
    C135     C        0.96640    0.72940    0.24880    1.000
    C136     C        0.94730    0.69850    0.28290    1.000
    C137     C        0.84700    0.54400    0.28560    1.000
    O55      O        0.89900    0.75560    0.31460    1.000
    O56      O        0.93650    0.69510    0.34710    1.000
    N14      N        0.91610    0.71530    0.32070    1.000
    C138     C        0.80200    0.54870    0.28440    1.000
    C139     C        0.77870    0.53070    0.24800    1.000
    C140     C        0.95040    0.65220    0.28520    1.000
    O57      O        0.47800    0.06430    0.29010    1.000
    O58      O        0.43660    0.02320    0.28630    1.000
    C141     C        0.48270    0.08400    0.25140    1.000
    C142     C        0.47680    0.13120    0.24900    1.000
    C143     C        0.41660    0.01570    0.24760    1.000
    C144     C        0.36490    0.02080    0.24890    1.000
    C145     C        0.46640    0.22940    0.24880    1.000
    C146     C        0.44730    0.19850    0.28290    1.000
    C147     C        0.34700    0.04400    0.28560    1.000
    O59      O        0.39900    0.25560    0.31460    1.000
    O60      O        0.43650    0.19510    0.34710    1.000
    N15      N        0.41610    0.21530    0.32070    1.000
    C148     C        0.30200    0.04870    0.28440    1.000
    C149     C        0.27870    0.03070    0.24800    1.000
    C150     C        0.45040    0.15220    0.28520    1.000
    O61      O        0.47800    0.56430    0.79010    1.000
    O62      O        0.43660    0.52320    0.78630    1.000
    C151     C        0.48270    0.58400    0.75140    1.000
    C152     C        0.47680    0.63120    0.74900    1.000
    C153     C        0.41660    0.51570    0.74760    1.000
    C154     C        0.36490    0.52080    0.74890    1.000
    C155     C        0.46640    0.72940    0.74880    1.000
    C156     C        0.44730    0.69850    0.78290    1.000
    C157     C        0.34700    0.54400    0.78560    1.000
    O63      O        0.39900    0.75560    0.81460    1.000
    O64      O        0.43650    0.69510    0.84710    1.000
    N16      N        0.41610    0.71530    0.82070    1.000
    C158     C        0.30200    0.54870    0.78440    1.000
    C159     C        0.27870    0.53070    0.74800    1.000
    C160     C        0.45040    0.65220    0.78520    1.000
    O65      O        0.02200    0.06430    0.79010    1.000
    O66      O        0.06340    0.02320    0.78630    1.000
    C161     C        0.01730    0.08400    0.75140    1.000
    C162     C        0.02320    0.13120    0.74900    1.000
    C163     C        0.08340    0.01570    0.74760    1.000
    C164     C        0.13510    0.02080    0.74890    1.000
    C165     C        0.03360    0.22940    0.74880    1.000
    C166     C        0.05270    0.19850    0.78290    1.000
    C167     C        0.15300    0.04400    0.78560    1.000
    O67      O        0.10100    0.25560    0.81460    1.000
    O68      O        0.06350    0.19510    0.84710    1.000
    N17      N        0.08390    0.21530    0.82070    1.000
    C168     C        0.19800    0.04870    0.78440    1.000
    C169     C        0.22130    0.03070    0.74800    1.000
    C170     C        0.04960    0.15220    0.78520    1.000
    O69      O        0.02200    0.56430    0.29010    1.000
    O70      O        0.06340    0.52320    0.28630    1.000
    C171     C        0.01730    0.58400    0.25140    1.000
    C172     C        0.02320    0.63120    0.24900    1.000
    C173     C        0.08340    0.51570    0.24760    1.000
    C174     C        0.13510    0.52080    0.24890    1.000
    C175     C        0.03360    0.72940    0.24880    1.000
    C176     C        0.05270    0.69850    0.28290    1.000
    C177     C        0.15300    0.54400    0.28560    1.000
    O71      O        0.10100    0.75560    0.31460    1.000
    O72      O        0.06350    0.69510    0.34710    1.000
    N18      N        0.08390    0.71530    0.32070    1.000
    C178     C        0.19800    0.54870    0.28440    1.000
    C179     C        0.22130    0.53070    0.24800    1.000
    C180     C        0.04960    0.65220    0.28520    1.000
    O73      O        0.52200    0.06430    0.29010    1.000
    O74      O        0.56340    0.02320    0.28630    1.000
    C181     C        0.51730    0.08400    0.25140    1.000
    C182     C        0.52320    0.13120    0.24900    1.000
    C183     C        0.58340    0.01570    0.24760    1.000
    C184     C        0.63510    0.02080    0.24890    1.000
    C185     C        0.53360    0.22940    0.24880    1.000
    C186     C        0.55270    0.19850    0.28290    1.000
    C187     C        0.65300    0.04400    0.28560    1.000
    O75      O        0.60100    0.25560    0.31460    1.000
    O76      O        0.56350    0.19510    0.34710    1.000
    N19      N        0.58390    0.21530    0.32070    1.000
    C188     C        0.69800    0.04870    0.28440    1.000
    C189     C        0.72130    0.03070    0.24800    1.000
    C190     C        0.54960    0.15220    0.28520    1.000
    O77      O        0.52200    0.56430    0.79010    1.000
    O78      O        0.56340    0.52320    0.78630    1.000
    C191     C        0.51730    0.58400    0.75140    1.000
    C192     C        0.52320    0.63120    0.74900    1.000
    C193     C        0.58340    0.51570    0.74760    1.000
    C194     C        0.63510    0.52080    0.74890    1.000
    C195     C        0.53360    0.72940    0.74880    1.000
    C196     C        0.55270    0.69850    0.78290    1.000
    C197     C        0.65300    0.54400    0.78560    1.000
    O79      O        0.60100    0.75560    0.81460    1.000
    O80      O        0.56350    0.69510    0.84710    1.000
    N20      N        0.58390    0.71530    0.82070    1.000
    C198     C        0.69800    0.54870    0.78440    1.000
    C199     C        0.72130    0.53070    0.74800    1.000
    C200     C        0.54960    0.65220    0.78520    1.000
    O81      O        0.97800    0.93570    0.79010    1.000
    O82      O        0.93660    0.97680    0.78630    1.000
    C201     C        0.98270    0.91600    0.75140    1.000
    C202     C        0.97680    0.86880    0.74900    1.000
    C203     C        0.91660    0.98430    0.74760    1.000
    C204     C        0.86490    0.97920    0.74890    1.000
    C205     C        0.96640    0.77060    0.74880    1.000
    C206     C        0.94730    0.80150    0.78290    1.000
    C207     C        0.84700    0.95600    0.78560    1.000
    O83      O        0.89900    0.74440    0.81460    1.000
    O84      O        0.93650    0.80490    0.84710    1.000
    N21      N        0.91610    0.78470    0.82070    1.000
    C208     C        0.80200    0.95130    0.78440    1.000
    C209     C        0.77870    0.96930    0.74800    1.000
    C210     C        0.95040    0.84780    0.78520    1.000
    O85      O        0.97800    0.43570    0.29010    1.000
    O86      O        0.93660    0.47680    0.28630    1.000
    C211     C        0.98270    0.41600    0.25140    1.000
    C212     C        0.97680    0.36880    0.24900    1.000
    C213     C        0.91660    0.48430    0.24760    1.000
    C214     C        0.86490    0.47920    0.24890    1.000
    C215     C        0.96640    0.27060    0.24880    1.000
    C216     C        0.94730    0.30150    0.28290    1.000
    C217     C        0.84700    0.45600    0.28560    1.000
    O87      O        0.89900    0.24440    0.31460    1.000
    O88      O        0.93650    0.30490    0.34710    1.000
    N22      N        0.91610    0.28470    0.32070    1.000
    C218     C        0.80200    0.45130    0.28440    1.000
    C219     C        0.77870    0.46930    0.24800    1.000
    C220     C        0.95040    0.34780    0.28520    1.000
    O89      O        0.47800    0.93570    0.29010    1.000
    O90      O        0.43660    0.97680    0.28630    1.000
    C221     C        0.48270    0.91600    0.25140    1.000
    C222     C        0.47680    0.86880    0.24900    1.000
    C223     C        0.41660    0.98430    0.24760    1.000
    C224     C        0.36490    0.97920    0.24890    1.000
    C225     C        0.46640    0.77060    0.24880    1.000
    C226     C        0.44730    0.80150    0.28290    1.000
    C227     C        0.34700    0.95600    0.28560    1.000
    O91      O        0.39900    0.74440    0.31460    1.000
    O92      O        0.43650    0.80490    0.34710    1.000
    N23      N        0.41610    0.78470    0.32070    1.000
    C228     C        0.30200    0.95130    0.28440    1.000
    C229     C        0.27870    0.96930    0.24800    1.000
    C230     C        0.45040    0.84780    0.28520    1.000
    O93      O        0.47800    0.43570    0.79010    1.000
    O94      O        0.43660    0.47680    0.78630    1.000
    C231     C        0.48270    0.41600    0.75140    1.000
    C232     C        0.47680    0.36880    0.74900    1.000
    C233     C        0.41660    0.48430    0.74760    1.000
    C234     C        0.36490    0.47920    0.74890    1.000
    C235     C        0.46640    0.27060    0.74880    1.000
    C236     C        0.44730    0.30150    0.78290    1.000
    C237     C        0.34700    0.45600    0.78560    1.000
    O95      O        0.39900    0.24440    0.81460    1.000
    O96      O        0.43650    0.30490    0.84710    1.000
    N24      N        0.41610    0.28470    0.82070    1.000
    C238     C        0.30200    0.45130    0.78440    1.000
    C239     C        0.27870    0.46930    0.74800    1.000
    C240     C        0.45040    0.34780    0.78520    1.000
    O97      O        0.97800    0.06430    0.20990    1.000
    O98      O        0.93660    0.02320    0.21370    1.000
    C241     C        0.98270    0.08400    0.24860    1.000
    C242     C        0.97680    0.13120    0.25100    1.000
    C243     C        0.91660    0.01570    0.25240    1.000
    C244     C        0.86490    0.02080    0.25110    1.000
    C245     C        0.96640    0.22940    0.25120    1.000
    C246     C        0.94730    0.19850    0.21710    1.000
    C247     C        0.84700    0.04400    0.21440    1.000
    O99      O        0.89900    0.25560    0.18540    1.000
    O100     O        0.93650    0.19510    0.15290    1.000
    N25      N        0.91610    0.21530    0.17930    1.000
    C248     C        0.80200    0.04870    0.21560    1.000
    C249     C        0.77870    0.03070    0.25200    1.000
    C250     C        0.95040    0.15220    0.21480    1.000
    O101     O        0.97800    0.56430    0.70990    1.000
    O102     O        0.93660    0.52320    0.71370    1.000
    C251     C        0.98270    0.58400    0.74860    1.000
    C252     C        0.97680    0.63120    0.75100    1.000
    C253     C        0.91660    0.51570    0.75240    1.000
    C254     C        0.86490    0.52080    0.75110    1.000
    C255     C        0.96640    0.72940    0.75120    1.000
    C256     C        0.94730    0.69850    0.71710    1.000
    C257     C        0.84700    0.54400    0.71440    1.000
    O103     O        0.89900    0.75560    0.68540    1.000
    O104     O        0.93650    0.69510    0.65290    1.000
    N26      N        0.91610    0.71530    0.67930    1.000
    C258     C        0.80200    0.54870    0.71560    1.000
    C259     C        0.77870    0.53070    0.75200    1.000
    C260     C        0.95040    0.65220    0.71480    1.000
    O105     O        0.47800    0.06430    0.70990    1.000
    O106     O        0.43660    0.02320    0.71370    1.000
    C261     C        0.48270    0.08400    0.74860    1.000
    C262     C        0.47680    0.13120    0.75100    1.000
    C263     C        0.41660    0.01570    0.75240    1.000
    C264     C        0.36490    0.02080    0.75110    1.000
    C265     C        0.46640    0.22940    0.75120    1.000
    C266     C        0.44730    0.19850    0.71710    1.000
    C267     C        0.34700    0.04400    0.71440    1.000
    O107     O        0.39900    0.25560    0.68540    1.000
    O108     O        0.43650    0.19510    0.65290    1.000
    N27      N        0.41610    0.21530    0.67930    1.000
    C268     C        0.30200    0.04870    0.71560    1.000
    C269     C        0.27870    0.03070    0.75200    1.000
    C270     C        0.45040    0.15220    0.71480    1.000
    O109     O        0.47800    0.56430    0.20990    1.000
    O110     O        0.43660    0.52320    0.21370    1.000
    C271     C        0.48270    0.58400    0.24860    1.000
    C272     C        0.47680    0.63120    0.25100    1.000
    C273     C        0.41660    0.51570    0.25240    1.000
    C274     C        0.36490    0.52080    0.25110    1.000
    C275     C        0.46640    0.72940    0.25120    1.000
    C276     C        0.44730    0.69850    0.21710    1.000
    C277     C        0.34700    0.54400    0.21440    1.000
    O111     O        0.39900    0.75560    0.18540    1.000
    O112     O        0.43650    0.69510    0.15290    1.000
    N28      N        0.41610    0.71530    0.17930    1.000
    C278     C        0.30200    0.54870    0.21560    1.000
    C279     C        0.27870    0.53070    0.25200    1.000
    C280     C        0.45040    0.65220    0.21480    1.000
    O113     O        0.02200    0.93570    0.20990    1.000
    O114     O        0.06340    0.97680    0.21370    1.000
    C281     C        0.01730    0.91600    0.24860    1.000
    C282     C        0.02320    0.86880    0.25100    1.000
    C283     C        0.08340    0.98430    0.25240    1.000
    C284     C        0.13510    0.97920    0.25110    1.000
    C285     C        0.03360    0.77060    0.25120    1.000
    C286     C        0.05270    0.80150    0.21710    1.000
    C287     C        0.15300    0.95600    0.21440    1.000
    O115     O        0.10100    0.74440    0.18540    1.000
    O116     O        0.06350    0.80490    0.15290    1.000
    N29      N        0.08390    0.78470    0.17930    1.000
    C288     C        0.19800    0.95130    0.21560    1.000
    C289     C        0.22130    0.96930    0.25200    1.000
    C290     C        0.04960    0.84780    0.21480    1.000
    O117     O        0.02200    0.43570    0.70990    1.000
    O118     O        0.06340    0.47680    0.71370    1.000
    C291     C        0.01730    0.41600    0.74860    1.000
    C292     C        0.02320    0.36880    0.75100    1.000
    C293     C        0.08340    0.48430    0.75240    1.000
    C294     C        0.13510    0.47920    0.75110    1.000
    C295     C        0.03360    0.27060    0.75120    1.000
    C296     C        0.05270    0.30150    0.71710    1.000
    C297     C        0.15300    0.45600    0.71440    1.000
    O119     O        0.10100    0.24440    0.68540    1.000
    O120     O        0.06350    0.30490    0.65290    1.000
    N30      N        0.08390    0.28470    0.67930    1.000
    C298     C        0.19800    0.45130    0.71560    1.000
    C299     C        0.22130    0.46930    0.75200    1.000
    C300     C        0.04960    0.34780    0.71480    1.000
    O121     O        0.52200    0.93570    0.70990    1.000
    O122     O        0.56340    0.97680    0.71370    1.000
    C301     C        0.51730    0.91600    0.74860    1.000
    C302     C        0.52320    0.86880    0.75100    1.000
    C303     C        0.58340    0.98430    0.75240    1.000
    C304     C        0.63510    0.97920    0.75110    1.000
    C305     C        0.53360    0.77060    0.75120    1.000
    C306     C        0.55270    0.80150    0.71710    1.000
    C307     C        0.65300    0.95600    0.71440    1.000
    O123     O        0.60100    0.74440    0.68540    1.000
    O124     O        0.56350    0.80490    0.65290    1.000
    N31      N        0.58390    0.78470    0.67930    1.000
    C308     C        0.69800    0.95130    0.71560    1.000
    C309     C        0.72130    0.96930    0.75200    1.000
    C310     C        0.54960    0.84780    0.71480    1.000
    O125     O        0.52200    0.43570    0.20990    1.000
    O126     O        0.56340    0.47680    0.21370    1.000
    C311     C        0.51730    0.41600    0.24860    1.000
    C312     C        0.52320    0.36880    0.25100    1.000
    C313     C        0.58340    0.48430    0.25240    1.000
    C314     C        0.63510    0.47920    0.25110    1.000
    C315     C        0.53360    0.27060    0.25120    1.000
    C316     C        0.55270    0.30150    0.21710    1.000
    C317     C        0.65300    0.45600    0.21440    1.000
    O127     O        0.60100    0.24440    0.18540    1.000
    O128     O        0.56350    0.30490    0.15290    1.000
    N32      N        0.58390    0.28470    0.17930    1.000
    C318     C        0.69800    0.45130    0.21560    1.000
    C319     C        0.72130    0.46930    0.25200    1.000
    C320     C        0.54960    0.34780    0.21480    1.000
    O129     O        0.96900    0.00000    0.19250    1.000
    O130     O        0.93370    0.00000    0.29105    1.000
    C321     C        0.04040    0.00000    0.44890    1.000
    C322     C        0.84130    0.00000    0.28750    1.000
    C323     C        0.79460    0.00000    0.28530    1.000
    C324     C        0.03690    0.00000    0.39860    1.000
    O131     O        0.96900    0.50000    0.69250    1.000
    O132     O        0.93370    0.50000    0.79105    1.000
    C325     C        0.04040    0.50000    0.94890    1.000
    C326     C        0.84130    0.50000    0.78750    1.000
    C327     C        0.79460    0.50000    0.78530    1.000
    C328     C        0.03690    0.50000    0.89860    1.000
    O133     O        0.46900    0.00000    0.69250    1.000
    O134     O        0.43370    0.00000    0.79105    1.000
    C329     C        0.54040    0.00000    0.94890    1.000
    C330     C        0.34130    0.00000    0.78750    1.000
    C331     C        0.29460    0.00000    0.78530    1.000
    C332     C        0.53690    0.00000    0.89860    1.000
    O135     O        0.46900    0.50000    0.19250    1.000
    O136     O        0.43370    0.50000    0.29105    1.000
    C333     C        0.54040    0.50000    0.44890    1.000
    C334     C        0.34130    0.50000    0.28750    1.000
    C335     C        0.29460    0.50000    0.28530    1.000
    C336     C        0.53690    0.50000    0.39860    1.000
    O137     O        0.03100    0.00000    0.19250    1.000
    O138     O        0.06630    0.00000    0.29105    1.000
    C337     C        0.95960    0.00000    0.44890    1.000
    C338     C        0.15870    0.00000    0.28750    1.000
    C339     C        0.20540    0.00000    0.28530    1.000
    C340     C        0.96310    0.00000    0.39860    1.000
    O139     O        0.03100    0.50000    0.69250    1.000
    O140     O        0.06630    0.50000    0.79105    1.000
    C341     C        0.95960    0.50000    0.94890    1.000
    C342     C        0.15870    0.50000    0.78750    1.000
    C343     C        0.20540    0.50000    0.78530    1.000
    C344     C        0.96310    0.50000    0.89860    1.000
    O141     O        0.53100    0.00000    0.69250    1.000
    O142     O        0.56630    0.00000    0.79105    1.000
    C345     C        0.45960    0.00000    0.94890    1.000
    C346     C        0.65870    0.00000    0.78750    1.000
    C347     C        0.70540    0.00000    0.78530    1.000
    C348     C        0.46310    0.00000    0.89860    1.000
    O143     O        0.53100    0.50000    0.19250    1.000
    O144     O        0.56630    0.50000    0.29105    1.000
    C349     C        0.45960    0.50000    0.44890    1.000
    C350     C        0.65870    0.50000    0.28750    1.000
    C351     C        0.70540    0.50000    0.28530    1.000
    C352     C        0.46310    0.50000    0.39860    1.000
    O145     O        0.03100    0.00000    0.80750    1.000
    O146     O        0.06630    0.00000    0.70895    1.000
    C353     C        0.95960    0.00000    0.55110    1.000
    C354     C        0.15870    0.00000    0.71250    1.000
    C355     C        0.20540    0.00000    0.71470    1.000
    C356     C        0.96310    0.00000    0.60140    1.000
    O147     O        0.03100    0.50000    0.30750    1.000
    O148     O        0.06630    0.50000    0.20895    1.000
    C357     C        0.95960    0.50000    0.05110    1.000
    C358     C        0.15870    0.50000    0.21250    1.000
    C359     C        0.20540    0.50000    0.21470    1.000
    C360     C        0.96310    0.50000    0.10140    1.000
    O149     O        0.53100    0.00000    0.30750    1.000
    O150     O        0.56630    0.00000    0.20895    1.000
    C361     C        0.45960    0.00000    0.05110    1.000
    C362     C        0.65870    0.00000    0.21250    1.000
    C363     C        0.70540    0.00000    0.21470    1.000
    C364     C        0.46310    0.00000    0.10140    1.000
    O151     O        0.53100    0.50000    0.80750    1.000
    O152     O        0.56630    0.50000    0.70895    1.000
    C365     C        0.45960    0.50000    0.55110    1.000
    C366     C        0.65870    0.50000    0.71250    1.000
    C367     C        0.70540    0.50000    0.71470    1.000
    C368     C        0.46310    0.50000    0.60140    1.000
    O153     O        0.96900    0.00000    0.80750    1.000
    O154     O        0.93370    0.00000    0.70895    1.000
    C369     C        0.04040    0.00000    0.55110    1.000
    C370     C        0.84130    0.00000    0.71250    1.000
    C371     C        0.79460    0.00000    0.71470    1.000
    C372     C        0.03690    0.00000    0.60140    1.000
    O155     O        0.96900    0.50000    0.30750    1.000
    O156     O        0.93370    0.50000    0.20895    1.000
    C373     C        0.04040    0.50000    0.05110    1.000
    C374     C        0.84130    0.50000    0.21250    1.000
    C375     C        0.79460    0.50000    0.21470    1.000
    C376     C        0.03690    0.50000    0.10140    1.000
    O157     O        0.46900    0.00000    0.30750    1.000
    O158     O        0.43370    0.00000    0.20895    1.000
    C377     C        0.54040    0.00000    0.05110    1.000
    C378     C        0.34130    0.00000    0.21250    1.000
    C379     C        0.29460    0.00000    0.21470    1.000
    C380     C        0.53690    0.00000    0.10140    1.000
    O159     O        0.46900    0.50000    0.80750    1.000
    O160     O        0.43370    0.50000    0.70895    1.000
    C381     C        0.54040    0.50000    0.55110    1.000
    C382     C        0.34130    0.50000    0.71250    1.000
    C383     C        0.29460    0.50000    0.71470    1.000
    C384     C        0.53690    0.50000    0.60140    1.000
    O161     O        0.00000    0.93390    0.28663    1.000
    C385     C        0.00000    0.84260    0.28610    1.000
    C386     C        0.00000    0.79740    0.28830    1.000
    C387     C        0.00000    0.96450    0.10150    1.000
    C388     C        0.00000    0.96260    0.05400    1.000
    O162     O        0.00000    0.43390    0.78663    1.000
    C389     C        0.00000    0.34260    0.78610    1.000
    C390     C        0.00000    0.29740    0.78830    1.000
    C391     C        0.00000    0.46450    0.60150    1.000
    C392     C        0.00000    0.46260    0.55400    1.000
    O163     O        0.50000    0.93390    0.78663    1.000
    C393     C        0.50000    0.84260    0.78610    1.000
    C394     C        0.50000    0.79740    0.78830    1.000
    C395     C        0.50000    0.96450    0.60150    1.000
    C396     C        0.50000    0.96260    0.55400    1.000
    O164     O        0.50000    0.43390    0.28663    1.000
    C397     C        0.50000    0.34260    0.28610    1.000
    C398     C        0.50000    0.29740    0.28830    1.000
    C399     C        0.50000    0.46450    0.10150    1.000
    C400     C        0.50000    0.46260    0.05400    1.000
    O165     O        0.00000    0.06610    0.28663    1.000
    C401     C        0.00000    0.15740    0.28610    1.000
    C402     C        0.00000    0.20260    0.28830    1.000
    C403     C        0.00000    0.03550    0.10150    1.000
    C404     C        0.00000    0.03740    0.05400    1.000
    O166     O        0.00000    0.56610    0.78663    1.000
    C405     C        0.00000    0.65740    0.78610    1.000
    C406     C        0.00000    0.70260    0.78830    1.000
    C407     C        0.00000    0.53550    0.60150    1.000
    C408     C        0.00000    0.53740    0.55400    1.000
    O167     O        0.50000    0.06610    0.78663    1.000
    C409     C        0.50000    0.15740    0.78610    1.000
    C410     C        0.50000    0.20260    0.78830    1.000
    C411     C        0.50000    0.03550    0.60150    1.000
    C412     C        0.50000    0.03740    0.55400    1.000
    O168     O        0.50000    0.56610    0.28663    1.000
    C413     C        0.50000    0.65740    0.28610    1.000
    C414     C        0.50000    0.70260    0.28830    1.000
    C415     C        0.50000    0.53550    0.10150    1.000
    C416     C        0.50000    0.53740    0.05400    1.000
    O169     O        0.00000    0.93390    0.71337    1.000
    C417     C        0.00000    0.84260    0.71390    1.000
    C418     C        0.00000    0.79740    0.71170    1.000
    C419     C        0.00000    0.96450    0.89850    1.000
    C420     C        0.00000    0.96260    0.94600    1.000
    O170     O        0.00000    0.43390    0.21337    1.000
    C421     C        0.00000    0.34260    0.21390    1.000
    C422     C        0.00000    0.29740    0.21170    1.000
    C423     C        0.00000    0.46450    0.39850    1.000
    C424     C        0.00000    0.46260    0.44600    1.000
    O171     O        0.50000    0.93390    0.21337    1.000
    C425     C        0.50000    0.84260    0.21390    1.000
    C426     C        0.50000    0.79740    0.21170    1.000
    C427     C        0.50000    0.96450    0.39850    1.000
    C428     C        0.50000    0.96260    0.44600    1.000
    O172     O        0.50000    0.43390    0.71337    1.000
    C429     C        0.50000    0.34260    0.71390    1.000
    C430     C        0.50000    0.29740    0.71170    1.000
    C431     C        0.50000    0.46450    0.89850    1.000
    C432     C        0.50000    0.46260    0.94600    1.000
    O173     O        0.00000    0.06610    0.71337    1.000
    C433     C        0.00000    0.15740    0.71390    1.000
    C434     C        0.00000    0.20260    0.71170    1.000
    C435     C        0.00000    0.03550    0.89850    1.000
    C436     C        0.00000    0.03740    0.94600    1.000
    O174     O        0.00000    0.56610    0.21337    1.000
    C437     C        0.00000    0.65740    0.21390    1.000
    C438     C        0.00000    0.70260    0.21170    1.000
    C439     C        0.00000    0.53550    0.39850    1.000
    C440     C        0.00000    0.53740    0.44600    1.000
    O175     O        0.50000    0.06610    0.21337    1.000
    C441     C        0.50000    0.15740    0.21390    1.000
    C442     C        0.50000    0.20260    0.21170    1.000
    C443     C        0.50000    0.03550    0.39850    1.000
    C444     C        0.50000    0.03740    0.44600    1.000
    O176     O        0.50000    0.56610    0.71337    1.000
    C445     C        0.50000    0.65740    0.71390    1.000
    C446     C        0.50000    0.70260    0.71170    1.000
    C447     C        0.50000    0.53550    0.89850    1.000
    C448     C        0.50000    0.53740    0.94600    1.000
    N33      N        0.00000    0.00000    0.37530    1.000
    C449     C        0.00000    0.00000    0.47330    1.000
    Zn1      Zn       0.00000    0.00000    0.30270    1.000
    N34      N        0.00000    0.00000    0.12550    1.000
    C450     C        0.00000    0.00000    0.02680    1.000
    Zn2      Zn       0.00000    0.00000    0.19800    1.000
    N35      N        0.00000    0.50000    0.87530    1.000
    C451     C        0.00000    0.50000    0.97330    1.000
    Zn3      Zn       0.00000    0.50000    0.80270    1.000
    N36      N        0.00000    0.50000    0.62550    1.000
    C452     C        0.00000    0.50000    0.52680    1.000
    Zn4      Zn       0.00000    0.50000    0.69800    1.000
    N37      N        0.50000    0.00000    0.87530    1.000
    C453     C        0.50000    0.00000    0.97330    1.000
    Zn5      Zn       0.50000    0.00000    0.80270    1.000
    N38      N        0.50000    0.00000    0.62550    1.000
    C454     C        0.50000    0.00000    0.52680    1.000
    Zn6      Zn       0.50000    0.00000    0.69800    1.000
    N39      N        0.50000    0.50000    0.37530    1.000
    C455     C        0.50000    0.50000    0.47330    1.000
    Zn7      Zn       0.50000    0.50000    0.30270    1.000
    N40      N        0.50000    0.50000    0.12550    1.000
    C456     C        0.50000    0.50000    0.02680    1.000
    Zn8      Zn       0.50000    0.50000    0.19800    1.000
    N41      N        0.00000    0.00000    0.62470    1.000
    C457     C        0.00000    0.00000    0.52670    1.000
    Zn9      Zn       0.00000    0.00000    0.69730    1.000
    N42      N        0.00000    0.00000    0.87450    1.000
    C458     C        0.00000    0.00000    0.97320    1.000
    Zn10     Zn       0.00000    0.00000    0.80200    1.000
    N43      N        0.00000    0.50000    0.12470    1.000
    C459     C        0.00000    0.50000    0.02670    1.000
    Zn11     Zn       0.00000    0.50000    0.19730    1.000
    N44      N        0.00000    0.50000    0.37450    1.000
    C460     C        0.00000    0.50000    0.47320    1.000
    Zn12     Zn       0.00000    0.50000    0.30200    1.000
    N45      N        0.50000    0.00000    0.12470    1.000
    C461     C        0.50000    0.00000    0.02670    1.000
    Zn13     Zn       0.50000    0.00000    0.19730    1.000
    N46      N        0.50000    0.00000    0.37450    1.000
    C462     C        0.50000    0.00000    0.47320    1.000
    Zn14     Zn       0.50000    0.00000    0.30200    1.000
    N47      N        0.50000    0.50000    0.62470    1.000
    C463     C        0.50000    0.50000    0.52670    1.000
    Zn15     Zn       0.50000    0.50000    0.69730    1.000
    N48      N        0.50000    0.50000    0.87450    1.000
    C464     C        0.50000    0.50000    0.97320    1.000
    Zn16     Zn       0.50000    0.50000    0.80200    1.000
    O177     O        0.23710    0.31501    0.03772    1.000
    O178     O        0.31490    0.26380    0.03967    1.000
    N49      N        0.17200    0.46550    0.92510    1.000
    C465     C        0.20900    0.40360    0.96470    1.000
    C466     C        0.19940    0.44880    0.96530    1.000
    C467     C        0.21640    0.24420    0.14950    1.000
    C468     C        0.20890    0.24760    0.19840    1.000
    C469     C        0.40240    0.29470    0.03540    1.000
    C470     C        0.44950    0.29670    0.03600    1.000
    C471     C        0.24460    0.40610    0.96000    1.000
    C472     C        0.23770    0.45520    0.96200    1.000
    C473     C        0.25700    0.28350    0.14720    1.000
    C474     C        0.23160    0.21290    0.19780    1.000
    C475     C        0.40860    0.25570    0.03910    1.000
    C476     C        0.45750    0.25770    0.02970    1.000
    O179     O        0.17570    0.44850    0.88480    1.000
    O180     O        0.23710    0.81501    0.53772    1.000
    O181     O        0.31490    0.76380    0.53967    1.000
    N50      N        0.17200    0.96550    0.42510    1.000
    C477     C        0.20900    0.90360    0.46470    1.000
    C478     C        0.19940    0.94880    0.46530    1.000
    C479     C        0.21640    0.74420    0.64950    1.000
    C480     C        0.20890    0.74760    0.69840    1.000
    C481     C        0.40240    0.79470    0.53540    1.000
    C482     C        0.44950    0.79670    0.53600    1.000
    C483     C        0.24460    0.90610    0.46000    1.000
    C484     C        0.23770    0.95520    0.46200    1.000
    C485     C        0.25700    0.78350    0.64720    1.000
    C486     C        0.23160    0.71290    0.69780    1.000
    C487     C        0.40860    0.75570    0.53910    1.000
    C488     C        0.45750    0.75770    0.52970    1.000
    O182     O        0.17570    0.94850    0.38480    1.000
    O183     O        0.73710    0.31501    0.53772    1.000
    O184     O        0.81490    0.26380    0.53967    1.000
    N51      N        0.67200    0.46550    0.42510    1.000
    C489     C        0.70900    0.40360    0.46470    1.000
    C490     C        0.69940    0.44880    0.46530    1.000
    C491     C        0.71640    0.24420    0.64950    1.000
    C492     C        0.70890    0.24760    0.69840    1.000
    C493     C        0.90240    0.29470    0.53540    1.000
    C494     C        0.94950    0.29670    0.53600    1.000
    C495     C        0.74460    0.40610    0.46000    1.000
    C496     C        0.73770    0.45520    0.46200    1.000
    C497     C        0.75700    0.28350    0.64720    1.000
    C498     C        0.73160    0.21290    0.69780    1.000
    C499     C        0.90860    0.25570    0.53910    1.000
    C500     C        0.95750    0.25770    0.52970    1.000
    O185     O        0.67570    0.44850    0.38480    1.000
    O186     O        0.73710    0.81501    0.03772    1.000
    O187     O        0.81490    0.76380    0.03967    1.000
    N52      N        0.67200    0.96550    0.92510    1.000
    C501     C        0.70900    0.90360    0.96470    1.000
    C502     C        0.69940    0.94880    0.96530    1.000
    C503     C        0.71640    0.74420    0.14950    1.000
    C504     C        0.70890    0.74760    0.19840    1.000
    C505     C        0.90240    0.79470    0.03540    1.000
    C506     C        0.94950    0.79670    0.03600    1.000
    C507     C        0.74460    0.90610    0.96000    1.000
    C508     C        0.73770    0.95520    0.96200    1.000
    C509     C        0.75700    0.78350    0.14720    1.000
    C510     C        0.73160    0.71290    0.19780    1.000
    C511     C        0.90860    0.75570    0.03910    1.000
    C512     C        0.95750    0.75770    0.02970    1.000
    O188     O        0.67570    0.94850    0.88480    1.000
    O189     O        0.76290    0.68499    0.03772    1.000
    O190     O        0.68510    0.73620    0.03967    1.000
    N53      N        0.82800    0.53450    0.92510    1.000
    C513     C        0.79100    0.59640    0.96470    1.000
    C514     C        0.80060    0.55120    0.96530    1.000
    C515     C        0.78360    0.75580    0.14950    1.000
    C516     C        0.79110    0.75240    0.19840    1.000
    C517     C        0.59760    0.70530    0.03540    1.000
    C518     C        0.55050    0.70330    0.03600    1.000
    C519     C        0.75540    0.59390    0.96000    1.000
    C520     C        0.76230    0.54480    0.96200    1.000
    C521     C        0.74300    0.71650    0.14720    1.000
    C522     C        0.76840    0.78710    0.19780    1.000
    C523     C        0.59140    0.74430    0.03910    1.000
    C524     C        0.54250    0.74230    0.02970    1.000
    O191     O        0.82430    0.55150    0.88480    1.000
    O192     O        0.76290    0.18499    0.53772    1.000
    O193     O        0.68510    0.23620    0.53967    1.000
    N54      N        0.82800    0.03450    0.42510    1.000
    C525     C        0.79100    0.09640    0.46470    1.000
    C526     C        0.80060    0.05120    0.46530    1.000
    C527     C        0.78360    0.25580    0.64950    1.000
    C528     C        0.79110    0.25240    0.69840    1.000
    C529     C        0.59760    0.20530    0.53540    1.000
    C530     C        0.55050    0.20330    0.53600    1.000
    C531     C        0.75540    0.09390    0.46000    1.000
    C532     C        0.76230    0.04480    0.46200    1.000
    C533     C        0.74300    0.21650    0.64720    1.000
    C534     C        0.76840    0.28710    0.69780    1.000
    C535     C        0.59140    0.24430    0.53910    1.000
    C536     C        0.54250    0.24230    0.52970    1.000
    O194     O        0.82430    0.05150    0.38480    1.000
    O195     O        0.26290    0.68499    0.53772    1.000
    O196     O        0.18510    0.73620    0.53967    1.000
    N55      N        0.32800    0.53450    0.42510    1.000
    C537     C        0.29100    0.59640    0.46470    1.000
    C538     C        0.30060    0.55120    0.46530    1.000
    C539     C        0.28360    0.75580    0.64950    1.000
    C540     C        0.29110    0.75240    0.69840    1.000
    C541     C        0.09760    0.70530    0.53540    1.000
    C542     C        0.05050    0.70330    0.53600    1.000
    C543     C        0.25540    0.59390    0.46000    1.000
    C544     C        0.26230    0.54480    0.46200    1.000
    C545     C        0.24300    0.71650    0.64720    1.000
    C546     C        0.26840    0.78710    0.69780    1.000
    C547     C        0.09140    0.74430    0.53910    1.000
    C548     C        0.04250    0.74230    0.52970    1.000
    O197     O        0.32430    0.55150    0.38480    1.000
    O198     O        0.26290    0.18499    0.03772    1.000
    O199     O        0.18510    0.23620    0.03967    1.000
    N56      N        0.32800    0.03450    0.92510    1.000
    C549     C        0.29100    0.09640    0.96470    1.000
    C550     C        0.30060    0.05120    0.96530    1.000
    C551     C        0.28360    0.25580    0.14950    1.000
    C552     C        0.29110    0.25240    0.19840    1.000
    C553     C        0.09760    0.20530    0.03540    1.000
    C554     C        0.05050    0.20330    0.03600    1.000
    C555     C        0.25540    0.09390    0.96000    1.000
    C556     C        0.26230    0.04480    0.96200    1.000
    C557     C        0.24300    0.21650    0.14720    1.000
    C558     C        0.26840    0.28710    0.19780    1.000
    C559     C        0.09140    0.24430    0.03910    1.000
    C560     C        0.04250    0.24230    0.02970    1.000
    O200     O        0.32430    0.05150    0.88480    1.000
    O201     O        0.76290    0.31501    0.96228    1.000
    O202     O        0.68510    0.26380    0.96033    1.000
    N57      N        0.82800    0.46550    0.07490    1.000
    C561     C        0.79100    0.40360    0.03530    1.000
    C562     C        0.80060    0.44880    0.03470    1.000
    C563     C        0.78360    0.24420    0.85050    1.000
    C564     C        0.79110    0.24760    0.80160    1.000
    C565     C        0.59760    0.29470    0.96460    1.000
    C566     C        0.55050    0.29670    0.96400    1.000
    C567     C        0.75540    0.40610    0.04000    1.000
    C568     C        0.76230    0.45520    0.03800    1.000
    C569     C        0.74300    0.28350    0.85280    1.000
    C570     C        0.76840    0.21290    0.80220    1.000
    C571     C        0.59140    0.25570    0.96090    1.000
    C572     C        0.54250    0.25770    0.97030    1.000
    O203     O        0.82430    0.44850    0.11520    1.000
    O204     O        0.76290    0.81501    0.46228    1.000
    O205     O        0.68510    0.76380    0.46033    1.000
    N58      N        0.82800    0.96550    0.57490    1.000
    C573     C        0.79100    0.90360    0.53530    1.000
    C574     C        0.80060    0.94880    0.53470    1.000
    C575     C        0.78360    0.74420    0.35050    1.000
    C576     C        0.79110    0.74760    0.30160    1.000
    C577     C        0.59760    0.79470    0.46460    1.000
    C578     C        0.55050    0.79670    0.46400    1.000
    C579     C        0.75540    0.90610    0.54000    1.000
    C580     C        0.76230    0.95520    0.53800    1.000
    C581     C        0.74300    0.78350    0.35280    1.000
    C582     C        0.76840    0.71290    0.30220    1.000
    C583     C        0.59140    0.75570    0.46090    1.000
    C584     C        0.54250    0.75770    0.47030    1.000
    O206     O        0.82430    0.94850    0.61520    1.000
    O207     O        0.26290    0.31501    0.46228    1.000
    O208     O        0.18510    0.26380    0.46033    1.000
    N59      N        0.32800    0.46550    0.57490    1.000
    C585     C        0.29100    0.40360    0.53530    1.000
    C586     C        0.30060    0.44880    0.53470    1.000
    C587     C        0.28360    0.24420    0.35050    1.000
    C588     C        0.29110    0.24760    0.30160    1.000
    C589     C        0.09760    0.29470    0.46460    1.000
    C590     C        0.05050    0.29670    0.46400    1.000
    C591     C        0.25540    0.40610    0.54000    1.000
    C592     C        0.26230    0.45520    0.53800    1.000
    C593     C        0.24300    0.28350    0.35280    1.000
    C594     C        0.26840    0.21290    0.30220    1.000
    C595     C        0.09140    0.25570    0.46090    1.000
    C596     C        0.04250    0.25770    0.47030    1.000
    O209     O        0.32430    0.44850    0.61520    1.000
    O210     O        0.26290    0.81501    0.96228    1.000
    O211     O        0.18510    0.76380    0.96033    1.000
    N60      N        0.32800    0.96550    0.07490    1.000
    C597     C        0.29100    0.90360    0.03530    1.000
    C598     C        0.30060    0.94880    0.03470    1.000
    C599     C        0.28360    0.74420    0.85050    1.000
    C600     C        0.29110    0.74760    0.80160    1.000
    C601     C        0.09760    0.79470    0.96460    1.000
    C602     C        0.05050    0.79670    0.96400    1.000
    C603     C        0.25540    0.90610    0.04000    1.000
    C604     C        0.26230    0.95520    0.03800    1.000
    C605     C        0.24300    0.78350    0.85280    1.000
    C606     C        0.26840    0.71290    0.80220    1.000
    C607     C        0.09140    0.75570    0.96090    1.000
    C608     C        0.04250    0.75770    0.97030    1.000
    O212     O        0.32430    0.94850    0.11520    1.000
    O213     O        0.23710    0.68499    0.96228    1.000
    O214     O        0.31490    0.73620    0.96033    1.000
    N61      N        0.17200    0.53450    0.07490    1.000
    C609     C        0.20900    0.59640    0.03530    1.000
    C610     C        0.19940    0.55120    0.03470    1.000
    C611     C        0.21640    0.75580    0.85050    1.000
    C612     C        0.20890    0.75240    0.80160    1.000
    C613     C        0.40240    0.70530    0.96460    1.000
    C614     C        0.44950    0.70330    0.96400    1.000
    C615     C        0.24460    0.59390    0.04000    1.000
    C616     C        0.23770    0.54480    0.03800    1.000
    C617     C        0.25700    0.71650    0.85280    1.000
    C618     C        0.23160    0.78710    0.80220    1.000
    C619     C        0.40860    0.74430    0.96090    1.000
    C620     C        0.45750    0.74230    0.97030    1.000
    O215     O        0.17570    0.55150    0.11520    1.000
    O216     O        0.23710    0.18499    0.46228    1.000
    O217     O        0.31490    0.23620    0.46033    1.000
    N62      N        0.17200    0.03450    0.57490    1.000
    C621     C        0.20900    0.09640    0.53530    1.000
    C622     C        0.19940    0.05120    0.53470    1.000
    C623     C        0.21640    0.25580    0.35050    1.000
    C624     C        0.20890    0.25240    0.30160    1.000
    C625     C        0.40240    0.20530    0.46460    1.000
    C626     C        0.44950    0.20330    0.46400    1.000
    C627     C        0.24460    0.09390    0.54000    1.000
    C628     C        0.23770    0.04480    0.53800    1.000
    C629     C        0.25700    0.21650    0.35280    1.000
    C630     C        0.23160    0.28710    0.30220    1.000
    C631     C        0.40860    0.24430    0.46090    1.000
    C632     C        0.45750    0.24230    0.47030    1.000
    O218     O        0.17570    0.05150    0.61520    1.000
    O219     O        0.73710    0.68499    0.46228    1.000
    O220     O        0.81490    0.73620    0.46033    1.000
    N63      N        0.67200    0.53450    0.57490    1.000
    C633     C        0.70900    0.59640    0.53530    1.000
    C634     C        0.69940    0.55120    0.53470    1.000
    C635     C        0.71640    0.75580    0.35050    1.000
    C636     C        0.70890    0.75240    0.30160    1.000
    C637     C        0.90240    0.70530    0.46460    1.000
    C638     C        0.94950    0.70330    0.46400    1.000
    C639     C        0.74460    0.59390    0.54000    1.000
    C640     C        0.73770    0.54480    0.53800    1.000
    C641     C        0.75700    0.71650    0.35280    1.000
    C642     C        0.73160    0.78710    0.30220    1.000
    C643     C        0.90860    0.74430    0.46090    1.000
    C644     C        0.95750    0.74230    0.47030    1.000
    O221     O        0.67570    0.55150    0.61520    1.000
    O222     O        0.73710    0.18499    0.96228    1.000
    O223     O        0.81490    0.23620    0.96033    1.000
    N64      N        0.67200    0.03450    0.07490    1.000
    C645     C        0.70900    0.09640    0.03530    1.000
    C646     C        0.69940    0.05120    0.03470    1.000
    C647     C        0.71640    0.25580    0.85050    1.000
    C648     C        0.70890    0.25240    0.80160    1.000
    C649     C        0.90240    0.20530    0.96460    1.000
    C650     C        0.94950    0.20330    0.96400    1.000
    C651     C        0.74460    0.09390    0.04000    1.000
    C652     C        0.73770    0.04480    0.03800    1.000
    C653     C        0.75700    0.21650    0.85280    1.000
    C654     C        0.73160    0.28710    0.80220    1.000
    C655     C        0.90860    0.24430    0.96090    1.000
    C656     C        0.95750    0.24230    0.97030    1.000
    O224     O        0.67570    0.05150    0.11520    1.000
    O225     O        0.76290    0.68499    0.96228    1.000
    O226     O        0.68510    0.73620    0.96033    1.000
    N65      N        0.82800    0.53450    0.07490    1.000
    C657     C        0.79100    0.59640    0.03530    1.000
    C658     C        0.80060    0.55120    0.03470    1.000
    C659     C        0.78360    0.75580    0.85050    1.000
    C660     C        0.79110    0.75240    0.80160    1.000
    C661     C        0.59760    0.70530    0.96460    1.000
    C662     C        0.55050    0.70330    0.96400    1.000
    C663     C        0.75540    0.59390    0.04000    1.000
    C664     C        0.76230    0.54480    0.03800    1.000
    C665     C        0.74300    0.71650    0.85280    1.000
    C666     C        0.76840    0.78710    0.80220    1.000
    C667     C        0.59140    0.74430    0.96090    1.000
    C668     C        0.54250    0.74230    0.97030    1.000
    O227     O        0.82430    0.55150    0.11520    1.000
    O228     O        0.76290    0.18499    0.46228    1.000
    O229     O        0.68510    0.23620    0.46033    1.000
    N66      N        0.82800    0.03450    0.57490    1.000
    C669     C        0.79100    0.09640    0.53530    1.000
    C670     C        0.80060    0.05120    0.53470    1.000
    C671     C        0.78360    0.25580    0.35050    1.000
    C672     C        0.79110    0.25240    0.30160    1.000
    C673     C        0.59760    0.20530    0.46460    1.000
    C674     C        0.55050    0.20330    0.46400    1.000
    C675     C        0.75540    0.09390    0.54000    1.000
    C676     C        0.76230    0.04480    0.53800    1.000
    C677     C        0.74300    0.21650    0.35280    1.000
    C678     C        0.76840    0.28710    0.30220    1.000
    C679     C        0.59140    0.24430    0.46090    1.000
    C680     C        0.54250    0.24230    0.47030    1.000
    O230     O        0.82430    0.05150    0.61520    1.000
    O231     O        0.26290    0.68499    0.46228    1.000
    O232     O        0.18510    0.73620    0.46033    1.000
    N67      N        0.32800    0.53450    0.57490    1.000
    C681     C        0.29100    0.59640    0.53530    1.000
    C682     C        0.30060    0.55120    0.53470    1.000
    C683     C        0.28360    0.75580    0.35050    1.000
    C684     C        0.29110    0.75240    0.30160    1.000
    C685     C        0.09760    0.70530    0.46460    1.000
    C686     C        0.05050    0.70330    0.46400    1.000
    C687     C        0.25540    0.59390    0.54000    1.000
    C688     C        0.26230    0.54480    0.53800    1.000
    C689     C        0.24300    0.71650    0.35280    1.000
    C690     C        0.26840    0.78710    0.30220    1.000
    C691     C        0.09140    0.74430    0.46090    1.000
    C692     C        0.04250    0.74230    0.47030    1.000
    O233     O        0.32430    0.55150    0.61520    1.000
    O234     O        0.26290    0.18499    0.96228    1.000
    O235     O        0.18510    0.23620    0.96033    1.000
    N68      N        0.32800    0.03450    0.07490    1.000
    C693     C        0.29100    0.09640    0.03530    1.000
    C694     C        0.30060    0.05120    0.03470    1.000
    C695     C        0.28360    0.25580    0.85050    1.000
    C696     C        0.29110    0.25240    0.80160    1.000
    C697     C        0.09760    0.20530    0.96460    1.000
    C698     C        0.05050    0.20330    0.96400    1.000
    C699     C        0.25540    0.09390    0.04000    1.000
    C700     C        0.26230    0.04480    0.03800    1.000
    C701     C        0.24300    0.21650    0.85280    1.000
    C702     C        0.26840    0.28710    0.80220    1.000
    C703     C        0.09140    0.24430    0.96090    1.000
    C704     C        0.04250    0.24230    0.97030    1.000
    O236     O        0.32430    0.05150    0.11520    1.000
    O237     O        0.23710    0.31501    0.96228    1.000
    O238     O        0.31490    0.26380    0.96033    1.000
    N69      N        0.17200    0.46550    0.07490    1.000
    C705     C        0.20900    0.40360    0.03530    1.000
    C706     C        0.19940    0.44880    0.03470    1.000
    C707     C        0.21640    0.24420    0.85050    1.000
    C708     C        0.20890    0.24760    0.80160    1.000
    C709     C        0.40240    0.29470    0.96460    1.000
    C710     C        0.44950    0.29670    0.96400    1.000
    C711     C        0.24460    0.40610    0.04000    1.000
    C712     C        0.23770    0.45520    0.03800    1.000
    C713     C        0.25700    0.28350    0.85280    1.000
    C714     C        0.23160    0.21290    0.80220    1.000
    C715     C        0.40860    0.25570    0.96090    1.000
    C716     C        0.45750    0.25770    0.97030    1.000
    O239     O        0.17570    0.44850    0.11520    1.000
    O240     O        0.23710    0.81501    0.46228    1.000
    O241     O        0.31490    0.76380    0.46033    1.000
    N70      N        0.17200    0.96550    0.57490    1.000
    C717     C        0.20900    0.90360    0.53530    1.000
    C718     C        0.19940    0.94880    0.53470    1.000
    C719     C        0.21640    0.74420    0.35050    1.000
    C720     C        0.20890    0.74760    0.30160    1.000
    C721     C        0.40240    0.79470    0.46460    1.000
    C722     C        0.44950    0.79670    0.46400    1.000
    C723     C        0.24460    0.90610    0.54000    1.000
    C724     C        0.23770    0.95520    0.53800    1.000
    C725     C        0.25700    0.78350    0.35280    1.000
    C726     C        0.23160    0.71290    0.30220    1.000
    C727     C        0.40860    0.75570    0.46090    1.000
    C728     C        0.45750    0.75770    0.47030    1.000
    O242     O        0.17570    0.94850    0.61520    1.000
    O243     O        0.73710    0.31501    0.46228    1.000
    O244     O        0.81490    0.26380    0.46033    1.000
    N71      N        0.67200    0.46550    0.57490    1.000
    C729     C        0.70900    0.40360    0.53530    1.000
    C730     C        0.69940    0.44880    0.53470    1.000
    C731     C        0.71640    0.24420    0.35050    1.000
    C732     C        0.70890    0.24760    0.30160    1.000
    C733     C        0.90240    0.29470    0.46460    1.000
    C734     C        0.94950    0.29670    0.46400    1.000
    C735     C        0.74460    0.40610    0.54000    1.000
    C736     C        0.73770    0.45520    0.53800    1.000
    C737     C        0.75700    0.28350    0.35280    1.000
    C738     C        0.73160    0.21290    0.30220    1.000
    C739     C        0.90860    0.25570    0.46090    1.000
    C740     C        0.95750    0.25770    0.47030    1.000
    O245     O        0.67570    0.44850    0.61520    1.000
    O246     O        0.73710    0.81501    0.96228    1.000
    O247     O        0.81490    0.76380    0.96033    1.000
    N72      N        0.67200    0.96550    0.07490    1.000
    C741     C        0.70900    0.90360    0.03530    1.000
    C742     C        0.69940    0.94880    0.03470    1.000
    C743     C        0.71640    0.74420    0.85050    1.000
    C744     C        0.70890    0.74760    0.80160    1.000
    C745     C        0.90240    0.79470    0.96460    1.000
    C746     C        0.94950    0.79670    0.96400    1.000
    C747     C        0.74460    0.90610    0.04000    1.000
    C748     C        0.73770    0.95520    0.03800    1.000
    C749     C        0.75700    0.78350    0.85280    1.000
    C750     C        0.73160    0.71290    0.80220    1.000
    C751     C        0.90860    0.75570    0.96090    1.000
    C752     C        0.95750    0.75770    0.97030    1.000
    O248     O        0.67570    0.94850    0.11520    1.000
    O249     O        0.23710    0.68499    0.03772    1.000
    O250     O        0.31490    0.73620    0.03967    1.000
    N73      N        0.17200    0.53450    0.92510    1.000
    C753     C        0.20900    0.59640    0.96470    1.000
    C754     C        0.19940    0.55120    0.96530    1.000
    C755     C        0.21640    0.75580    0.14950    1.000
    C756     C        0.20890    0.75240    0.19840    1.000
    C757     C        0.40240    0.70530    0.03540    1.000
    C758     C        0.44950    0.70330    0.03600    1.000
    C759     C        0.24460    0.59390    0.96000    1.000
    C760     C        0.23770    0.54480    0.96200    1.000
    C761     C        0.25700    0.71650    0.14720    1.000
    C762     C        0.23160    0.78710    0.19780    1.000
    C763     C        0.40860    0.74430    0.03910    1.000
    C764     C        0.45750    0.74230    0.02970    1.000
    O251     O        0.17570    0.55150    0.88480    1.000
    O252     O        0.23710    0.18499    0.53772    1.000
    O253     O        0.31490    0.23620    0.53967    1.000
    N74      N        0.17200    0.03450    0.42510    1.000
    C765     C        0.20900    0.09640    0.46470    1.000
    C766     C        0.19940    0.05120    0.46530    1.000
    C767     C        0.21640    0.25580    0.64950    1.000
    C768     C        0.20890    0.25240    0.69840    1.000
    C769     C        0.40240    0.20530    0.53540    1.000
    C770     C        0.44950    0.20330    0.53600    1.000
    C771     C        0.24460    0.09390    0.46000    1.000
    C772     C        0.23770    0.04480    0.46200    1.000
    C773     C        0.25700    0.21650    0.64720    1.000
    C774     C        0.23160    0.28710    0.69780    1.000
    C775     C        0.40860    0.24430    0.53910    1.000
    C776     C        0.45750    0.24230    0.52970    1.000
    O254     O        0.17570    0.05150    0.38480    1.000
    O255     O        0.73710    0.68499    0.53772    1.000
    O256     O        0.81490    0.73620    0.53967    1.000
    N75      N        0.67200    0.53450    0.42510    1.000
    C777     C        0.70900    0.59640    0.46470    1.000
    C778     C        0.69940    0.55120    0.46530    1.000
    C779     C        0.71640    0.75580    0.64950    1.000
    C780     C        0.70890    0.75240    0.69840    1.000
    C781     C        0.90240    0.70530    0.53540    1.000
    C782     C        0.94950    0.70330    0.53600    1.000
    C783     C        0.74460    0.59390    0.46000    1.000
    C784     C        0.73770    0.54480    0.46200    1.000
    C785     C        0.75700    0.71650    0.64720    1.000
    C786     C        0.73160    0.78710    0.69780    1.000
    C787     C        0.90860    0.74430    0.53910    1.000
    C788     C        0.95750    0.74230    0.52970    1.000
    O257     O        0.67570    0.55150    0.38480    1.000
    O258     O        0.73710    0.18499    0.03772    1.000
    O259     O        0.81490    0.23620    0.03967    1.000
    N76      N        0.67200    0.03450    0.92510    1.000
    C789     C        0.70900    0.09640    0.96470    1.000
    C790     C        0.69940    0.05120    0.96530    1.000
    C791     C        0.71640    0.25580    0.14950    1.000
    C792     C        0.70890    0.25240    0.19840    1.000
    C793     C        0.90240    0.20530    0.03540    1.000
    C794     C        0.94950    0.20330    0.03600    1.000
    C795     C        0.74460    0.09390    0.96000    1.000
    C796     C        0.73770    0.04480    0.96200    1.000
    C797     C        0.75700    0.21650    0.14720    1.000
    C798     C        0.73160    0.28710    0.19780    1.000
    C799     C        0.90860    0.24430    0.03910    1.000
    C800     C        0.95750    0.24230    0.02970    1.000
    O260     O        0.67570    0.05150    0.88480    1.000
    O261     O        0.76290    0.31501    0.03772    1.000
    O262     O        0.68510    0.26380    0.03967    1.000
    N77      N        0.82800    0.46550    0.92510    1.000
    C801     C        0.79100    0.40360    0.96470    1.000
    C802     C        0.80060    0.44880    0.96530    1.000
    C803     C        0.78360    0.24420    0.14950    1.000
    C804     C        0.79110    0.24760    0.19840    1.000
    C805     C        0.59760    0.29470    0.03540    1.000
    C806     C        0.55050    0.29670    0.03600    1.000
    C807     C        0.75540    0.40610    0.96000    1.000
    C808     C        0.76230    0.45520    0.96200    1.000
    C809     C        0.74300    0.28350    0.14720    1.000
    C810     C        0.76840    0.21290    0.19780    1.000
    C811     C        0.59140    0.25570    0.03910    1.000
    C812     C        0.54250    0.25770    0.02970    1.000
    O263     O        0.82430    0.44850    0.88480    1.000
    O264     O        0.76290    0.81501    0.53772    1.000
    O265     O        0.68510    0.76380    0.53967    1.000
    N78      N        0.82800    0.96550    0.42510    1.000
    C813     C        0.79100    0.90360    0.46470    1.000
    C814     C        0.80060    0.94880    0.46530    1.000
    C815     C        0.78360    0.74420    0.64950    1.000
    C816     C        0.79110    0.74760    0.69840    1.000
    C817     C        0.59760    0.79470    0.53540    1.000
    C818     C        0.55050    0.79670    0.53600    1.000
    C819     C        0.75540    0.90610    0.46000    1.000
    C820     C        0.76230    0.95520    0.46200    1.000
    C821     C        0.74300    0.78350    0.64720    1.000
    C822     C        0.76840    0.71290    0.69780    1.000
    C823     C        0.59140    0.75570    0.53910    1.000
    C824     C        0.54250    0.75770    0.52970    1.000
    O266     O        0.82430    0.94850    0.38480    1.000
    O267     O        0.26290    0.31501    0.53772    1.000
    O268     O        0.18510    0.26380    0.53967    1.000
    N79      N        0.32800    0.46550    0.42510    1.000
    C825     C        0.29100    0.40360    0.46470    1.000
    C826     C        0.30060    0.44880    0.46530    1.000
    C827     C        0.28360    0.24420    0.64950    1.000
    C828     C        0.29110    0.24760    0.69840    1.000
    C829     C        0.09760    0.29470    0.53540    1.000
    C830     C        0.05050    0.29670    0.53600    1.000
    C831     C        0.25540    0.40610    0.46000    1.000
    C832     C        0.26230    0.45520    0.46200    1.000
    C833     C        0.24300    0.28350    0.64720    1.000
    C834     C        0.26840    0.21290    0.69780    1.000
    C835     C        0.09140    0.25570    0.53910    1.000
    C836     C        0.04250    0.25770    0.52970    1.000
    O269     O        0.32430    0.44850    0.38480    1.000
    O270     O        0.26290    0.81501    0.03772    1.000
    O271     O        0.18510    0.76380    0.03967    1.000
    N80      N        0.32800    0.96550    0.92510    1.000
    C837     C        0.29100    0.90360    0.96470    1.000
    C838     C        0.30060    0.94880    0.96530    1.000
    C839     C        0.28360    0.74420    0.14950    1.000
    C840     C        0.29110    0.74760    0.19840    1.000
    C841     C        0.09760    0.79470    0.03540    1.000
    C842     C        0.05050    0.79670    0.03600    1.000
    C843     C        0.25540    0.90610    0.96000    1.000
    C844     C        0.26230    0.95520    0.96200    1.000
    C845     C        0.24300    0.78350    0.14720    1.000
    C846     C        0.26840    0.71290    0.19780    1.000
    C847     C        0.09140    0.75570    0.03910    1.000
    C848     C        0.04250    0.75770    0.02970    1.000
    O272     O        0.32430    0.94850    0.88480    1.000
    N81      N        0.25000    0.25000    0.12530    1.000
    C849     C        0.25000    0.25000    0.22230    1.000
    Zn17     Zn       0.25000    0.25000    0.05223    1.000
    N82      N        0.25000    0.75000    0.62530    1.000
    C850     C        0.25000    0.75000    0.72230    1.000
    Zn18     Zn       0.25000    0.75000    0.55223    1.000
    N83      N        0.75000    0.75000    0.12530    1.000
    C851     C        0.75000    0.75000    0.22230    1.000
    Zn19     Zn       0.75000    0.75000    0.05223    1.000
    N84      N        0.75000    0.25000    0.62530    1.000
    C852     C        0.75000    0.25000    0.72230    1.000
    Zn20     Zn       0.75000    0.25000    0.55223    1.000
    N85      N        0.75000    0.25000    0.87470    1.000
    C853     C        0.75000    0.25000    0.77770    1.000
    Zn21     Zn       0.75000    0.25000    0.94777    1.000
    N86      N        0.75000    0.75000    0.37470    1.000
    C854     C        0.75000    0.75000    0.27770    1.000
    Zn22     Zn       0.75000    0.75000    0.44777    1.000
    N87      N        0.25000    0.25000    0.37470    1.000
    C855     C        0.25000    0.25000    0.27770    1.000
    Zn23     Zn       0.25000    0.25000    0.44777    1.000
    N88      N        0.25000    0.75000    0.87470    1.000
    C856     C        0.25000    0.75000    0.77770    1.000
    Zn24     Zn       0.25000    0.75000    0.94777    1.000
    N89      N        0.75000    0.75000    0.87470    1.000
    C857     C        0.75000    0.75000    0.77770    1.000
    Zn25     Zn       0.75000    0.75000    0.94777    1.000
    N90      N        0.75000    0.25000    0.37470    1.000
    C858     C        0.75000    0.25000    0.27770    1.000
    Zn26     Zn       0.75000    0.25000    0.44777    1.000
    N91      N        0.25000    0.25000    0.87470    1.000
    C859     C        0.25000    0.25000    0.77770    1.000
    Zn27     Zn       0.25000    0.25000    0.94777    1.000
    N92      N        0.25000    0.75000    0.37470    1.000
    C860     C        0.25000    0.75000    0.27770    1.000
    Zn28     Zn       0.25000    0.75000    0.44777    1.000
    N93      N        0.25000    0.75000    0.12530    1.000
    C861     C        0.25000    0.75000    0.22230    1.000
    Zn29     Zn       0.25000    0.75000    0.05223    1.000
    N94      N        0.25000    0.25000    0.62530    1.000
    C862     C        0.25000    0.25000    0.72230    1.000
    Zn30     Zn       0.25000    0.25000    0.55223    1.000
    N95      N        0.75000    0.25000    0.12530    1.000
    C863     C        0.75000    0.25000    0.22230    1.000
    Zn31     Zn       0.75000    0.25000    0.05223    1.000
    N96      N        0.75000    0.75000    0.62530    1.000
    C864     C        0.75000    0.75000    0.72230    1.000
    Zn32     Zn       0.75000    0.75000    0.55223    1.000
    C865     C        0.33300    0.26280    0.00000    1.000
    C866     C        0.22850    0.38340    0.00000    1.000
    C867     C        0.38490    0.26950    0.00000    1.000
    C868     C        0.23580    0.33340    0.00000    1.000
    C869     C        0.21610    0.47590    0.00000    1.000
    C870     C        0.47490    0.27900    0.00000    1.000
    C871     C        0.33300    0.76280    0.50000    1.000
    C872     C        0.22850    0.88340    0.50000    1.000
    C873     C        0.38490    0.76950    0.50000    1.000
    C874     C        0.23580    0.83340    0.50000    1.000
    C875     C        0.21610    0.97590    0.50000    1.000
    C876     C        0.47490    0.77900    0.50000    1.000
    C877     C        0.83300    0.26280    0.50000    1.000
    C878     C        0.72850    0.38340    0.50000    1.000
    C879     C        0.88490    0.26950    0.50000    1.000
    C880     C        0.73580    0.33340    0.50000    1.000
    C881     C        0.71610    0.47590    0.50000    1.000
    C882     C        0.97490    0.27900    0.50000    1.000
    C883     C        0.83300    0.76280    0.00000    1.000
    C884     C        0.72850    0.88340    0.00000    1.000
    C885     C        0.88490    0.76950    0.00000    1.000
    C886     C        0.73580    0.83340    0.00000    1.000
    C887     C        0.71610    0.97590    0.00000    1.000
    C888     C        0.97490    0.77900    0.00000    1.000
    C889     C        0.66700    0.73720    0.00000    1.000
    C890     C        0.77150    0.61660    0.00000    1.000
    C891     C        0.61510    0.73050    0.00000    1.000
    C892     C        0.76420    0.66660    0.00000    1.000
    C893     C        0.78390    0.52410    0.00000    1.000
    C894     C        0.52510    0.72100    0.00000    1.000
    C895     C        0.66700    0.23720    0.50000    1.000
    C896     C        0.77150    0.11660    0.50000    1.000
    C897     C        0.61510    0.23050    0.50000    1.000
    C898     C        0.76420    0.16660    0.50000    1.000
    C899     C        0.78390    0.02410    0.50000    1.000
    C900     C        0.52510    0.22100    0.50000    1.000
    C901     C        0.16700    0.73720    0.50000    1.000
    C902     C        0.27150    0.61660    0.50000    1.000
    C903     C        0.11510    0.73050    0.50000    1.000
    C904     C        0.26420    0.66660    0.50000    1.000
    C905     C        0.28390    0.52410    0.50000    1.000
    C906     C        0.02510    0.72100    0.50000    1.000
    C907     C        0.16700    0.23720    0.00000    1.000
    C908     C        0.27150    0.11660    0.00000    1.000
    C909     C        0.11510    0.23050    0.00000    1.000
    C910     C        0.26420    0.16660    0.00000    1.000
    C911     C        0.28390    0.02410    0.00000    1.000
    C912     C        0.02510    0.22100    0.00000    1.000
    C913     C        0.66700    0.26280    0.00000    1.000
    C914     C        0.77150    0.38340    0.00000    1.000
    C915     C        0.61510    0.26950    0.00000    1.000
    C916     C        0.76420    0.33340    0.00000    1.000
    C917     C        0.78390    0.47590    0.00000    1.000
    C918     C        0.52510    0.27900    0.00000    1.000
    C919     C        0.66700    0.76280    0.50000    1.000
    C920     C        0.77150    0.88340    0.50000    1.000
    C921     C        0.61510    0.76950    0.50000    1.000
    C922     C        0.76420    0.83340    0.50000    1.000
    C923     C        0.78390    0.97590    0.50000    1.000
    C924     C        0.52510    0.77900    0.50000    1.000
    C925     C        0.16700    0.26280    0.50000    1.000
    C926     C        0.27150    0.38340    0.50000    1.000
    C927     C        0.11510    0.26950    0.50000    1.000
    C928     C        0.26420    0.33340    0.50000    1.000
    C929     C        0.28390    0.47590    0.50000    1.000
    C930     C        0.02510    0.27900    0.50000    1.000
    C931     C        0.16700    0.76280    0.00000    1.000
    C932     C        0.27150    0.88340    0.00000    1.000
    C933     C        0.11510    0.76950    0.00000    1.000
    C934     C        0.26420    0.83340    0.00000    1.000
    C935     C        0.28390    0.97590    0.00000    1.000
    C936     C        0.02510    0.77900    0.00000    1.000
    C937     C        0.33300    0.73720    0.00000    1.000
    C938     C        0.22850    0.61660    0.00000    1.000
    C939     C        0.38490    0.73050    0.00000    1.000
    C940     C        0.23580    0.66660    0.00000    1.000
    C941     C        0.21610    0.52410    0.00000    1.000
    C942     C        0.47490    0.72100    0.00000    1.000
    C943     C        0.33300    0.23720    0.50000    1.000
    C944     C        0.22850    0.11660    0.50000    1.000
    C945     C        0.38490    0.23050    0.50000    1.000
    C946     C        0.23580    0.16660    0.50000    1.000
    C947     C        0.21610    0.02410    0.50000    1.000
    C948     C        0.47490    0.22100    0.50000    1.000
    C949     C        0.83300    0.73720    0.50000    1.000
    C950     C        0.72850    0.61660    0.50000    1.000
    C951     C        0.88490    0.73050    0.50000    1.000
    C952     C        0.73580    0.66660    0.50000    1.000
    C953     C        0.71610    0.52410    0.50000    1.000
    C954     C        0.97490    0.72100    0.50000    1.000
    C955     C        0.83300    0.23720    0.00000    1.000
    C956     C        0.72850    0.11660    0.00000    1.000
    C957     C        0.88490    0.23050    0.00000    1.000
    C958     C        0.73580    0.16660    0.00000    1.000
    C959     C        0.71610    0.02410    0.00000    1.000
    C960     C        0.97490    0.22100    0.00000    1.000
    O273     O        0.14960    0.50000    0.93340    1.000
    O274     O        0.14960    0.00000    0.43340    1.000
    O275     O        0.64960    0.50000    0.43340    1.000
    O276     O        0.64960    0.00000    0.93340    1.000
    O277     O        0.85040    0.50000    0.93340    1.000
    O278     O        0.85040    0.00000    0.43340    1.000
    O279     O        0.35040    0.50000    0.43340    1.000
    O280     O        0.35040    0.00000    0.93340    1.000
    O281     O        0.85040    0.50000    0.06660    1.000
    O282     O        0.85040    0.00000    0.56660    1.000
    O283     O        0.35040    0.50000    0.56660    1.000
    O284     O        0.35040    0.00000    0.06660    1.000
    O285     O        0.14960    0.50000    0.06660    1.000
    O286     O        0.14960    0.00000    0.56660    1.000
    O287     O        0.64960    0.50000    0.56660    1.000
    O288     O        0.64960    0.00000    0.06660    1.000
