# CIF file generated by openbabel 3.1.0, see https://openbabel.org
data_I
_chemical_name_common 'image0'
_cell_length_a 9.7669
_cell_length_b 19.1321
_cell_length_c 19.139
_cell_angle_alpha 90
_cell_angle_beta 90
_cell_angle_gamma 90
_space_group_name_H-M_alt 'P 1'
_space_group_name_Hall 'P 1'
loop_
    _symmetry_equiv_pos_as_xyz
    x,y,z
loop_
    _atom_site_label
    _atom_site_type_symbol
    _atom_site_fract_x
    _atom_site_fract_y
    _atom_site_fract_z
    _atom_site_occupancy
    U1       U        0.98489    0.23478    0.24913    1.000
    U2       U        0.28929    0.00314    0.74185    1.000
    P1       P        0.07250    0.10782    0.11375    1.000
    P2       P        0.37660    0.12444    0.87158    1.000
    P3       P        0.41310    0.12749    0.61974    1.000
    P4       P        0.11170    0.10901    0.37779    1.000
    O1       O        0.98790    0.05110    0.07890    1.000
    O2       O        0.19190    0.07730    0.15440    1.000
    O3       O        0.98490    0.15550    0.15950    1.000
    O4       O        0.45570    0.17960    0.83230    1.000
    O5       O        0.47300    0.07310    0.90610    1.000
    H1       H        0.44400    0.03320    0.90060    1.000
    O6       O        0.26960    0.08960    0.82380    1.000
    O7       O        0.48180    0.18140    0.66560    1.000
    O8       O        0.30160    0.08610    0.65570    1.000
    O9       O        0.52440    0.07960    0.59000    1.000
    H2       H        0.50400    0.03870    0.59740    1.000
    O10      O        0.21880    0.07720    0.33030    1.000
    O11      O        0.01240    0.15520    0.33810    1.000
    O12      O        0.03820    0.05340    0.42020    1.000
    C1       C        0.14740    0.16090    0.04590    1.000
    C2       C        0.21680    0.12850    0.99110    1.000
    H3       H        0.21930    0.07990    0.98870    1.000
    C3       C        0.28300    0.16820    0.93950    1.000
    C4       C        0.27580    0.23950    0.94370    1.000
    H4       H        0.31840    0.26650    0.90960    1.000
    C5       C        0.20610    0.27290    0.99800    1.000
    H5       H        0.20150    0.32140    0.99980    1.000
    C6       C        0.14370    0.23240    0.04950    1.000
    H6       H        0.09920    0.25420    0.08660    1.000
    C7       C        0.33430    0.17020    0.54620    1.000
    C8       C        0.26230    0.13190    0.49820    1.000
    H7       H        0.25410    0.08390    0.50470    1.000
    C9       C        0.20150    0.16220    0.44080    1.000
    C10      C        0.21520    0.23560    0.43240    1.000
    H8       H        0.17610    0.25760    0.39390    1.000
    C11      C        0.28510    0.27380    0.48020    1.000
    H9       H        0.29330    0.32190    0.47410    1.000
    C12      C        0.34440    0.24270    0.53780    1.000
    H10      H        0.39060    0.26960    0.57070    1.000
    U3       U        0.51511    0.76522    0.74913    1.000
    U4       U        0.21071    0.99686    0.24185    1.000
    P5       P        0.42750    0.89218    0.61375    1.000
    P6       P        0.12340    0.87556    0.37158    1.000
    P7       P        0.08690    0.87251    0.11974    1.000
    P8       P        0.38830    0.89099    0.87779    1.000
    O13      O        0.51210    0.94890    0.57890    1.000
    O14      O        0.30810    0.92270    0.65440    1.000
    O15      O        0.51510    0.84450    0.65950    1.000
    O16      O        0.04430    0.82040    0.33230    1.000
    O17      O        0.02700    0.92690    0.40610    1.000
    H11      H        0.05600    0.96680    0.40060    1.000
    O18      O        0.23040    0.91040    0.32380    1.000
    O19      O        0.01820    0.81860    0.16560    1.000
    O20      O        0.19840    0.91390    0.15570    1.000
    O21      O        0.97560    0.92040    0.09000    1.000
    H12      H        0.99600    0.96130    0.09740    1.000
    O22      O        0.28120    0.92280    0.83030    1.000
    O23      O        0.48760    0.84480    0.83810    1.000
    O24      O        0.46180    0.94660    0.92020    1.000
    C13      C        0.35260    0.83910    0.54590    1.000
    C14      C        0.28320    0.87150    0.49110    1.000
    H13      H        0.28070    0.92010    0.48870    1.000
    C15      C        0.21700    0.83180    0.43950    1.000
    C16      C        0.22420    0.76050    0.44370    1.000
    H14      H        0.18160    0.73350    0.40960    1.000
    C17      C        0.29390    0.72710    0.49800    1.000
    H15      H        0.29850    0.67860    0.49980    1.000
    C18      C        0.35630    0.76760    0.54950    1.000
    H16      H        0.40080    0.74580    0.58660    1.000
    C19      C        0.16570    0.82980    0.04620    1.000
    C20      C        0.23770    0.86810    0.99820    1.000
    H17      H        0.24590    0.91610    0.00470    1.000
    C21      C        0.29850    0.83780    0.94080    1.000
    C22      C        0.28480    0.76440    0.93240    1.000
    H18      H        0.32390    0.74240    0.89390    1.000
    C23      C        0.21490    0.72620    0.98020    1.000
    H19      H        0.20670    0.67810    0.97410    1.000
    C24      C        0.15560    0.75730    0.03780    1.000
    H20      H        0.10940    0.73040    0.07070    1.000
    U5       U        0.01511    0.73478    0.25087    1.000
    U6       U        0.71071    0.50314    0.75815    1.000
    P9       P        0.92750    0.60782    0.38625    1.000
    P10      P        0.62340    0.62444    0.62842    1.000
    P11      P        0.58690    0.62749    0.88026    1.000
    P12      P        0.88830    0.60901    0.12221    1.000
    O25      O        0.01210    0.55110    0.42110    1.000
    O26      O        0.80810    0.57730    0.34560    1.000
    O27      O        0.01510    0.65550    0.34050    1.000
    O28      O        0.54430    0.67960    0.66770    1.000
    O29      O        0.52700    0.57310    0.59390    1.000
    H21      H        0.55600    0.53320    0.59940    1.000
    O30      O        0.73040    0.58960    0.67620    1.000
    O31      O        0.51820    0.68140    0.83440    1.000
    O32      O        0.69840    0.58610    0.84430    1.000
    O33      O        0.47560    0.57960    0.91000    1.000
    H22      H        0.49600    0.53870    0.90260    1.000
    O34      O        0.78120    0.57720    0.16970    1.000
    O35      O        0.98760    0.65520    0.16190    1.000
    O36      O        0.96180    0.55340    0.07980    1.000
    C25      C        0.85260    0.66090    0.45410    1.000
    C26      C        0.78320    0.62850    0.50890    1.000
    H23      H        0.78070    0.57990    0.51130    1.000
    C27      C        0.71700    0.66820    0.56050    1.000
    C28      C        0.72420    0.73950    0.55630    1.000
    H24      H        0.68160    0.76650    0.59040    1.000
    C29      C        0.79390    0.77290    0.50200    1.000
    H25      H        0.79850    0.82140    0.50020    1.000
    C30      C        0.85630    0.73240    0.45050    1.000
    H26      H        0.90080    0.75420    0.41340    1.000
    C31      C        0.66570    0.67020    0.95380    1.000
    C32      C        0.73770    0.63190    0.00180    1.000
    H27      H        0.74590    0.58390    0.99530    1.000
    C33      C        0.79850    0.66220    0.05920    1.000
    C34      C        0.78480    0.73560    0.06760    1.000
    H28      H        0.82390    0.75760    0.10610    1.000
    C35      C        0.71490    0.77380    0.01980    1.000
    H29      H        0.70670    0.82190    0.02590    1.000
    C36      C        0.65560    0.74270    0.96220    1.000
    H30      H        0.60940    0.76960    0.92930    1.000
    U7       U        0.48489    0.26522    0.75087    1.000
    U8       U        0.78929    0.49686    0.25815    1.000
    P13      P        0.57250    0.39218    0.88625    1.000
    P14      P        0.87660    0.37556    0.12842    1.000
    P15      P        0.91310    0.37251    0.38026    1.000
    P16      P        0.61170    0.39099    0.62221    1.000
    O37      O        0.48790    0.44890    0.92110    1.000
    O38      O        0.69190    0.42270    0.84560    1.000
    O39      O        0.48490    0.34450    0.84050    1.000
    O40      O        0.95570    0.32040    0.16770    1.000
    O41      O        0.97300    0.42690    0.09390    1.000
    H31      H        0.94400    0.46680    0.09940    1.000
    O42      O        0.76960    0.41040    0.17620    1.000
    O43      O        0.98180    0.31860    0.33440    1.000
    O44      O        0.80160    0.41390    0.34430    1.000
    O45      O        0.02440    0.42040    0.41000    1.000
    H32      H        0.00400    0.46130    0.40260    1.000
    O46      O        0.71880    0.42280    0.66970    1.000
    O47      O        0.51240    0.34480    0.66190    1.000
    O48      O        0.53820    0.44660    0.57980    1.000
    C37      C        0.64740    0.33910    0.95410    1.000
    C38      C        0.71680    0.37150    0.00890    1.000
    H33      H        0.71930    0.42010    0.01130    1.000
    C39      C        0.78300    0.33180    0.06050    1.000
    C40      C        0.77580    0.26050    0.05630    1.000
    H34      H        0.81840    0.23350    0.09040    1.000
    C41      C        0.70610    0.22710    0.00200    1.000
    H35      H        0.70150    0.17860    0.00020    1.000
    C42      C        0.64370    0.26760    0.95050    1.000
    H36      H        0.59920    0.24580    0.91340    1.000
    C43      C        0.83430    0.32980    0.45380    1.000
    C44      C        0.76230    0.36810    0.50180    1.000
    H37      H        0.75410    0.41610    0.49530    1.000
    C45      C        0.70150    0.33780    0.55920    1.000
    C46      C        0.71520    0.26440    0.56760    1.000
    H38      H        0.67610    0.24240    0.60610    1.000
    C47      C        0.78510    0.22620    0.51980    1.000
    H39      H        0.79330    0.17810    0.52590    1.000
    C48      C        0.84440    0.25730    0.46220    1.000
    H40      H        0.89060    0.23040    0.42930    1.000
