# CIF file generated by openbabel 3.1.0, see https://openbabel.org
data_I
_chemical_name_common 'image0'
_cell_length_a 26.3388
_cell_length_b 26.3388
_cell_length_c 4.856
_cell_angle_alpha 90
_cell_angle_beta 90
_cell_angle_gamma 90
_space_group_name_H-M_alt 'P 1'
_space_group_name_Hall 'P 1'
loop_
    _symmetry_equiv_pos_as_xyz
    x,y,z
loop_
    _atom_site_label
    _atom_site_type_symbol
    _atom_site_fract_x
    _atom_site_fract_y
    _atom_site_fract_z
    _atom_site_occupancy
    Zn1      Zn       0.26997    0.21596    0.89820    1.000
    O1       O        0.22830    0.27190    0.00810    1.000
    N1       N        0.24190    0.14700    0.95400    1.000
    O2       O        0.33670    0.22920    0.05300    1.000
    H1       H        0.20690    0.28320    0.89250    1.000
    C1       C        0.25750    0.11010    0.11200    1.000
    C2       C        0.20380    0.12470    0.78370    1.000
    H2       H        0.28250    0.11460    0.24500    1.000
    N2       N        0.23450    0.06470    0.06800    1.000
    C3       C        0.17450    0.14630    0.57880    1.000
    C4       C        0.19960    0.07370    0.85900    1.000
    C5       C        0.24900    0.01760    0.18500    1.000
    H3       H        0.17800    0.18040    0.53290    1.000
    C6       C        0.13950    0.11550    0.44290    1.000
    C7       C        0.16520    0.04220    0.72610    1.000
    C8       C        0.26880    0.01450    0.44800    1.000
    C9       C        0.24340    0.97310    0.03500    1.000
    C10      C        0.10970    0.13560    0.23580    1.000
    C11      C        0.13550    0.06430    0.51970    1.000
    H4       H        0.16200    0.00810    0.77220    1.000
    H5       H        0.27260    0.04410    0.55080    1.000
    C12      C        0.28280    0.96880    0.56300    1.000
    C13      C        0.25680    0.92670    0.14200    1.000
    H6       H        0.23020    0.97480    0.85770    1.000
    H7       H        0.11330    0.16970    0.19000    1.000
    C14      C        0.07430    0.10630    0.09360    1.000
    C15      C        0.09990    0.03450    0.37800    1.000
    C16      C        0.27660    0.92610    0.40400    1.000
    H8       H        0.29590    0.96680    0.74070    1.000
    H9       H        0.25260    0.89700    0.04110    1.000
    H10      H        0.05430    0.12000    0.95450    1.000
    C17      C        0.07040    0.05550    0.16970    1.000
    H11      H        0.09600    0.00050    0.42430    1.000
    C18      C        0.29280    0.87460    0.51900    1.000
    H12      H        0.04730    0.03480    0.07800    1.000
    O3       O        0.29670    0.87240    0.78000    1.000
    O4       O        0.34150    0.86540    0.49700    1.000
    C19      C        0.29850    0.01060    0.26500    1.000
    H13      H        0.32180    0.03680    0.24510    1.000
    C20      C        0.31390    0.96410    0.37800    1.000
    H14      H        0.34730    0.95860    0.43290    1.000
    C21      C        0.22570    0.93080    0.32400    1.000
    H15      H        0.20200    0.90480    0.34130    1.000
    C22      C        0.21450    0.97870    0.21600    1.000
    H16      H        0.18120    0.98470    0.16020    1.000
    Zn2      Zn       0.76997    0.71596    0.39820    1.000
    O5       O        0.72830    0.77190    0.50810    1.000
    N3       N        0.74190    0.64700    0.45400    1.000
    O6       O        0.83670    0.72920    0.55300    1.000
    H17      H        0.70690    0.78320    0.39250    1.000
    C23      C        0.75750    0.61010    0.61200    1.000
    C24      C        0.70380    0.62470    0.28370    1.000
    H18      H        0.78250    0.61460    0.74500    1.000
    N4       N        0.73450    0.56470    0.56800    1.000
    C25      C        0.67450    0.64630    0.07880    1.000
    C26      C        0.69960    0.57370    0.35900    1.000
    C27      C        0.74900    0.51760    0.68500    1.000
    H19      H        0.67800    0.68040    0.03290    1.000
    C28      C        0.63950    0.61550    0.94290    1.000
    C29      C        0.66520    0.54220    0.22610    1.000
    C30      C        0.76880    0.51450    0.94800    1.000
    C31      C        0.74340    0.47310    0.53500    1.000
    C32      C        0.60970    0.63560    0.73580    1.000
    C33      C        0.63550    0.56430    0.01970    1.000
    H20      H        0.66200    0.50810    0.27220    1.000
    H21      H        0.77260    0.54410    0.05080    1.000
    C34      C        0.78280    0.46880    0.06300    1.000
    C35      C        0.75680    0.42670    0.64200    1.000
    H22      H        0.73020    0.47480    0.35770    1.000
    H23      H        0.61330    0.66970    0.69000    1.000
    C36      C        0.57430    0.60630    0.59360    1.000
    C37      C        0.59990    0.53450    0.87800    1.000
    C38      C        0.77660    0.42610    0.90400    1.000
    H24      H        0.79590    0.46680    0.24070    1.000
    H25      H        0.75260    0.39700    0.54110    1.000
    H26      H        0.55430    0.62000    0.45450    1.000
    C39      C        0.57040    0.55550    0.66970    1.000
    H27      H        0.59600    0.50050    0.92430    1.000
    C40      C        0.79280    0.37460    0.01900    1.000
    H28      H        0.54730    0.53480    0.57800    1.000
    O7       O        0.79670    0.37240    0.28000    1.000
    O8       O        0.84150    0.36540    0.99700    1.000
    C41      C        0.79850    0.51060    0.76500    1.000
    H29      H        0.82180    0.53680    0.74510    1.000
    C42      C        0.81390    0.46410    0.87800    1.000
    H30      H        0.84730    0.45860    0.93290    1.000
    C43      C        0.72570    0.43080    0.82400    1.000
    H31      H        0.70200    0.40480    0.84130    1.000
    C44      C        0.71450    0.47870    0.71600    1.000
    H32      H        0.68120    0.48470    0.66020    1.000
    Zn3      Zn       0.73003    0.78404    0.89820    1.000
    O9       O        0.77170    0.72810    0.00810    1.000
    N5       N        0.75810    0.85300    0.95400    1.000
    O10      O        0.66330    0.77080    0.05300    1.000
    H33      H        0.79310    0.71680    0.89250    1.000
    C45      C        0.74250    0.88990    0.11200    1.000
    C46      C        0.79620    0.87530    0.78370    1.000
    H34      H        0.71750    0.88540    0.24500    1.000
    N6       N        0.76550    0.93530    0.06800    1.000
    C47      C        0.82550    0.85370    0.57880    1.000
    C48      C        0.80040    0.92630    0.85900    1.000
    C49      C        0.75100    0.98240    0.18500    1.000
    H35      H        0.82200    0.81960    0.53290    1.000
    C50      C        0.86050    0.88450    0.44290    1.000
    C51      C        0.83480    0.95780    0.72610    1.000
    C52      C        0.73120    0.98550    0.44800    1.000
    C53      C        0.75660    0.02690    0.03500    1.000
    C54      C        0.89030    0.86440    0.23580    1.000
    C55      C        0.86450    0.93570    0.51970    1.000
    H36      H        0.83800    0.99190    0.77220    1.000
    H37      H        0.72740    0.95590    0.55080    1.000
    C56      C        0.71720    0.03120    0.56300    1.000
    C57      C        0.74320    0.07330    0.14200    1.000
    H38      H        0.76980    0.02520    0.85770    1.000
    H39      H        0.88670    0.83030    0.19000    1.000
    C58      C        0.92570    0.89370    0.09360    1.000
    C59      C        0.90010    0.96550    0.37800    1.000
    C60      C        0.72340    0.07390    0.40400    1.000
    H40      H        0.70410    0.03320    0.74070    1.000
    H41      H        0.74740    0.10300    0.04110    1.000
    H42      H        0.94570    0.88000    0.95450    1.000
    C61      C        0.92960    0.94450    0.16970    1.000
    H43      H        0.90400    0.99950    0.42430    1.000
    C62      C        0.70720    0.12540    0.51900    1.000
    H44      H        0.95270    0.96520    0.07800    1.000
    O11      O        0.70330    0.12760    0.78000    1.000
    O12      O        0.65850    0.13460    0.49700    1.000
    C63      C        0.70150    0.98940    0.26500    1.000
    H45      H        0.67820    0.96320    0.24510    1.000
    C64      C        0.68610    0.03590    0.37800    1.000
    H46      H        0.65270    0.04140    0.43290    1.000
    C65      C        0.77430    0.06920    0.32400    1.000
    H47      H        0.79800    0.09520    0.34130    1.000
    C66      C        0.78550    0.02130    0.21600    1.000
    H48      H        0.81880    0.01530    0.16020    1.000
    Zn4      Zn       0.23003    0.28404    0.39820    1.000
    O13      O        0.27170    0.22810    0.50810    1.000
    N7       N        0.25810    0.35300    0.45400    1.000
    O14      O        0.16330    0.27080    0.55300    1.000
    H49      H        0.29310    0.21680    0.39250    1.000
    C67      C        0.24250    0.38990    0.61200    1.000
    C68      C        0.29620    0.37530    0.28370    1.000
    H50      H        0.21750    0.38540    0.74500    1.000
    N8       N        0.26550    0.43530    0.56800    1.000
    C69      C        0.32550    0.35370    0.07880    1.000
    C70      C        0.30040    0.42630    0.35900    1.000
    C71      C        0.25100    0.48240    0.68500    1.000
    H51      H        0.32200    0.31960    0.03290    1.000
    C72      C        0.36050    0.38450    0.94290    1.000
    C73      C        0.33480    0.45780    0.22610    1.000
    C74      C        0.23120    0.48550    0.94800    1.000
    C75      C        0.25660    0.52690    0.53500    1.000
    C76      C        0.39030    0.36440    0.73580    1.000
    C77      C        0.36450    0.43570    0.01970    1.000
    H52      H        0.33800    0.49190    0.27220    1.000
    H53      H        0.22740    0.45590    0.05080    1.000
    C78      C        0.21720    0.53120    0.06300    1.000
    C79      C        0.24320    0.57330    0.64200    1.000
    H54      H        0.26980    0.52520    0.35770    1.000
    H55      H        0.38670    0.33030    0.69000    1.000
    C80      C        0.42570    0.39370    0.59360    1.000
    C81      C        0.40010    0.46550    0.87800    1.000
    C82      C        0.22340    0.57390    0.90400    1.000
    H56      H        0.20410    0.53320    0.24070    1.000
    H57      H        0.24740    0.60300    0.54110    1.000
    H58      H        0.44570    0.38000    0.45450    1.000
    C83      C        0.42960    0.44450    0.66970    1.000
    H59      H        0.40400    0.49950    0.92430    1.000
    C84      C        0.20720    0.62540    0.01900    1.000
    H60      H        0.45270    0.46520    0.57800    1.000
    O15      O        0.20330    0.62760    0.28000    1.000
    O16      O        0.15850    0.63460    0.99700    1.000
    C85      C        0.20150    0.48940    0.76500    1.000
    H61      H        0.17820    0.46320    0.74510    1.000
    C86      C        0.18610    0.53590    0.87800    1.000
    H62      H        0.15270    0.54140    0.93290    1.000
    C87      C        0.27430    0.56920    0.82400    1.000
    H63      H        0.29800    0.59520    0.84130    1.000
    C88      C        0.28550    0.52130    0.71600    1.000
    H64      H        0.31880    0.51530    0.66020    1.000
    Zn5      Zn       0.21596    0.73003    0.10180    1.000
    O17      O        0.27190    0.77170    0.99190    1.000
    N9       N        0.14700    0.75810    0.04600    1.000
    O18      O        0.22920    0.66330    0.94700    1.000
    H65      H        0.28320    0.79310    0.10750    1.000
    C89      C        0.11010    0.74250    0.88800    1.000
    C90      C        0.12470    0.79620    0.21630    1.000
    H66      H        0.11460    0.71750    0.75500    1.000
    N10      N        0.06470    0.76550    0.93200    1.000
    C91      C        0.14630    0.82550    0.42120    1.000
    C92      C        0.07370    0.80040    0.14100    1.000
    C93      C        0.01760    0.75100    0.81500    1.000
    H67      H        0.18040    0.82200    0.46710    1.000
    C94      C        0.11550    0.86050    0.55710    1.000
    C95      C        0.04220    0.83480    0.27390    1.000
    C96      C        0.01450    0.73120    0.55200    1.000
    C97      C        0.97310    0.75660    0.96500    1.000
    C98      C        0.13560    0.89030    0.76420    1.000
    C99      C        0.06430    0.86450    0.48030    1.000
    H68      H        0.00810    0.83800    0.22780    1.000
    H69      H        0.04410    0.72740    0.44920    1.000
    C100     C        0.96880    0.71720    0.43700    1.000
    C101     C        0.92670    0.74320    0.85800    1.000
    H70      H        0.97480    0.76980    0.14230    1.000
    H71      H        0.16970    0.88670    0.81000    1.000
    C102     C        0.10630    0.92570    0.90640    1.000
    C103     C        0.03450    0.90010    0.62200    1.000
    C104     C        0.92610    0.72340    0.59600    1.000
    H72      H        0.96680    0.70410    0.25930    1.000
    H73      H        0.89700    0.74740    0.95890    1.000
    H74      H        0.12000    0.94570    0.04550    1.000
    C105     C        0.05550    0.92960    0.83030    1.000
    H75      H        0.00050    0.90400    0.57570    1.000
    C106     C        0.87460    0.70720    0.48100    1.000
    H76      H        0.03480    0.95270    0.92200    1.000
    O19      O        0.87240    0.70330    0.22000    1.000
    O20      O        0.86540    0.65850    0.50300    1.000
    C107     C        0.01060    0.70150    0.73500    1.000
    H77      H        0.03680    0.67820    0.75490    1.000
    C108     C        0.96410    0.68610    0.62200    1.000
    H78      H        0.95860    0.65270    0.56710    1.000
    C109     C        0.93080    0.77430    0.67600    1.000
    H79      H        0.90480    0.79800    0.65870    1.000
    C110     C        0.97870    0.78550    0.78400    1.000
    H80      H        0.98470    0.81880    0.83980    1.000
    Zn6      Zn       0.71596    0.23003    0.60180    1.000
    O21      O        0.77190    0.27170    0.49190    1.000
    N11      N        0.64700    0.25810    0.54600    1.000
    O22      O        0.72920    0.16330    0.44700    1.000
    H81      H        0.78320    0.29310    0.60750    1.000
    C111     C        0.61010    0.24250    0.38800    1.000
    C112     C        0.62470    0.29620    0.71630    1.000
    H82      H        0.61460    0.21750    0.25500    1.000
    N12      N        0.56470    0.26550    0.43200    1.000
    C113     C        0.64630    0.32550    0.92120    1.000
    C114     C        0.57370    0.30040    0.64100    1.000
    C115     C        0.51760    0.25100    0.31500    1.000
    H83      H        0.68040    0.32200    0.96710    1.000
    C116     C        0.61550    0.36050    0.05710    1.000
    C117     C        0.54220    0.33480    0.77390    1.000
    C118     C        0.51450    0.23120    0.05200    1.000
    C119     C        0.47310    0.25660    0.46500    1.000
    C120     C        0.63560    0.39030    0.26420    1.000
    C121     C        0.56430    0.36450    0.98030    1.000
    H84      H        0.50810    0.33800    0.72780    1.000
    H85      H        0.54410    0.22740    0.94920    1.000
    C122     C        0.46880    0.21720    0.93700    1.000
    C123     C        0.42670    0.24320    0.35800    1.000
    H86      H        0.47480    0.26980    0.64230    1.000
    H87      H        0.66970    0.38670    0.31000    1.000
    C124     C        0.60630    0.42570    0.40640    1.000
    C125     C        0.53450    0.40010    0.12200    1.000
    C126     C        0.42610    0.22340    0.09600    1.000
    H88      H        0.46680    0.20410    0.75930    1.000
    H89      H        0.39700    0.24740    0.45890    1.000
    H90      H        0.62000    0.44570    0.54550    1.000
    C127     C        0.55550    0.42960    0.33030    1.000
    H91      H        0.50050    0.40400    0.07570    1.000
    C128     C        0.37460    0.20720    0.98100    1.000
    H92      H        0.53480    0.45270    0.42200    1.000
    O23      O        0.37240    0.20330    0.72000    1.000
    O24      O        0.36540    0.15850    0.00300    1.000
    C129     C        0.51060    0.20150    0.23500    1.000
    H93      H        0.53680    0.17820    0.25490    1.000
    C130     C        0.46410    0.18610    0.12200    1.000
    H94      H        0.45860    0.15270    0.06710    1.000
    C131     C        0.43080    0.27430    0.17600    1.000
    H95      H        0.40480    0.29800    0.15870    1.000
    C132     C        0.47870    0.28550    0.28400    1.000
    H96      H        0.48470    0.31880    0.33980    1.000
    Zn7      Zn       0.78404    0.26997    0.10180    1.000
    O25      O        0.72810    0.22830    0.99190    1.000
    N13      N        0.85300    0.24190    0.04600    1.000
    O26      O        0.77080    0.33670    0.94700    1.000
    H97      H        0.71680    0.20690    0.10750    1.000
    C133     C        0.88990    0.25750    0.88800    1.000
    C134     C        0.87530    0.20380    0.21630    1.000
    H98      H        0.88540    0.28250    0.75500    1.000
    N14      N        0.93530    0.23450    0.93200    1.000
    C135     C        0.85370    0.17450    0.42120    1.000
    C136     C        0.92630    0.19960    0.14100    1.000
    C137     C        0.98240    0.24900    0.81500    1.000
    H99      H        0.81960    0.17800    0.46710    1.000
    C138     C        0.88450    0.13950    0.55710    1.000
    C139     C        0.95780    0.16520    0.27390    1.000
    C140     C        0.98550    0.26880    0.55200    1.000
    C141     C        0.02690    0.24340    0.96500    1.000
    C142     C        0.86440    0.10970    0.76420    1.000
    C143     C        0.93570    0.13550    0.48030    1.000
    H100     H        0.99190    0.16200    0.22780    1.000
    H101     H        0.95590    0.27260    0.44920    1.000
    C144     C        0.03120    0.28280    0.43700    1.000
    C145     C        0.07330    0.25680    0.85800    1.000
    H102     H        0.02520    0.23020    0.14230    1.000
    H103     H        0.83030    0.11330    0.81000    1.000
    C146     C        0.89370    0.07430    0.90640    1.000
    C147     C        0.96550    0.09990    0.62200    1.000
    C148     C        0.07390    0.27660    0.59600    1.000
    H104     H        0.03320    0.29590    0.25930    1.000
    H105     H        0.10300    0.25260    0.95890    1.000
    H106     H        0.88000    0.05430    0.04550    1.000
    C149     C        0.94450    0.07040    0.83030    1.000
    H107     H        0.99950    0.09600    0.57570    1.000
    C150     C        0.12540    0.29280    0.48100    1.000
    H108     H        0.96520    0.04730    0.92200    1.000
    O27      O        0.12760    0.29670    0.22000    1.000
    O28      O        0.13460    0.34150    0.50300    1.000
    C151     C        0.98940    0.29850    0.73500    1.000
    H109     H        0.96320    0.32180    0.75490    1.000
    C152     C        0.03590    0.31390    0.62200    1.000
    H110     H        0.04140    0.34730    0.56710    1.000
    C153     C        0.06920    0.22570    0.67600    1.000
    H111     H        0.09520    0.20200    0.65870    1.000
    C154     C        0.02130    0.21450    0.78400    1.000
    H112     H        0.01530    0.18120    0.83980    1.000
    Zn8      Zn       0.28404    0.76997    0.60180    1.000
    O29      O        0.22810    0.72830    0.49190    1.000
    N15      N        0.35300    0.74190    0.54600    1.000
    O30      O        0.27080    0.83670    0.44700    1.000
    H113     H        0.21680    0.70690    0.60750    1.000
    C155     C        0.38990    0.75750    0.38800    1.000
    C156     C        0.37530    0.70380    0.71630    1.000
    H114     H        0.38540    0.78250    0.25500    1.000
    N16      N        0.43530    0.73450    0.43200    1.000
    C157     C        0.35370    0.67450    0.92120    1.000
    C158     C        0.42630    0.69960    0.64100    1.000
    C159     C        0.48240    0.74900    0.31500    1.000
    H115     H        0.31960    0.67800    0.96710    1.000
    C160     C        0.38450    0.63950    0.05710    1.000
    C161     C        0.45780    0.66520    0.77390    1.000
    C162     C        0.48550    0.76880    0.05200    1.000
    C163     C        0.52690    0.74340    0.46500    1.000
    C164     C        0.36440    0.60970    0.26420    1.000
    C165     C        0.43570    0.63550    0.98030    1.000
    H116     H        0.49190    0.66200    0.72780    1.000
    H117     H        0.45590    0.77260    0.94920    1.000
    C166     C        0.53120    0.78280    0.93700    1.000
    C167     C        0.57330    0.75680    0.35800    1.000
    H118     H        0.52520    0.73020    0.64230    1.000
    H119     H        0.33030    0.61330    0.31000    1.000
    C168     C        0.39370    0.57430    0.40640    1.000
    C169     C        0.46550    0.59990    0.12200    1.000
    C170     C        0.57390    0.77660    0.09600    1.000
    H120     H        0.53320    0.79590    0.75930    1.000
    H121     H        0.60300    0.75260    0.45890    1.000
    H122     H        0.38000    0.55430    0.54550    1.000
    C171     C        0.44450    0.57040    0.33030    1.000
    H123     H        0.49950    0.59600    0.07570    1.000
    C172     C        0.62540    0.79280    0.98100    1.000
    H124     H        0.46520    0.54730    0.42200    1.000
    O31      O        0.62760    0.79670    0.72000    1.000
    O32      O        0.63460    0.84150    0.00300    1.000
    C173     C        0.48940    0.79850    0.23500    1.000
    H125     H        0.46320    0.82180    0.25490    1.000
    C174     C        0.53590    0.81390    0.12200    1.000
    H126     H        0.54140    0.84730    0.06710    1.000
    C175     C        0.56920    0.72570    0.17600    1.000
    H127     H        0.59520    0.70200    0.15870    1.000
    C176     C        0.52130    0.71450    0.28400    1.000
    H128     H        0.51530    0.68120    0.33980    1.000
