# CIF file generated by openbabel 3.1.0, see https://openbabel.org
data_I
_chemical_name_common 'image0'
_cell_length_a 14.443
_cell_length_b 22.1987
_cell_length_c 17.7628
_cell_angle_alpha 90
_cell_angle_beta 103.975
_cell_angle_gamma 90
_space_group_name_H-M_alt 'P 1'
_space_group_name_Hall 'P 1'
loop_
    _symmetry_equiv_pos_as_xyz
    x,y,z
loop_
    _atom_site_label
    _atom_site_type_symbol
    _atom_site_fract_x
    _atom_site_fract_y
    _atom_site_fract_z
    _atom_site_occupancy
    Co1      Co       0.54385    0.05967    0.31916    1.000
    Co2      Co       0.49907    0.13654    0.47250    1.000
    Co3      Co       0.45128    0.10379    0.64844    1.000
    O1       O        0.55517    0.05981    0.43399    1.000
    O2       O        0.43944    0.07577    0.53794    1.000
    O3       O        0.08010    0.30938    0.91883    1.000
    O4       O        0.37620    0.18351    0.61115    1.000
    N1       N        0.58370    0.14556    0.64390    1.000
    N2       N        0.72780    0.18116    0.66290    1.000
    O5       O        0.11590    0.35863    0.81980    1.000
    O6       O        0.42890    0.20934    0.50730    1.000
    O7       O        0.73770    0.03133    0.52610    1.000
    O8       O        0.62983    0.00804    0.59084    1.000
    N3       N        0.76880    0.35393    0.77080    1.000
    C1       C        0.23720    0.07100    0.64560    1.000
    H1       H        0.21500    0.11040    0.63690    1.000
    N4       N        0.18190    0.02264    0.65160    1.000
    N5       N        0.90960    0.39496    0.80530    1.000
    C2       C        0.49630    0.30436    0.63710    1.000
    C3       C        0.82360    0.20136    0.70120    1.000
    N6       N        0.60600    0.15112    0.57420    1.000
    C4       C        0.40000    0.22150    0.56610    1.000
    C5       C        0.66390    0.32535    0.64670    1.000
    H2       H        0.71520    0.32830    0.62380    1.000
    N7       N        0.32830    0.99241    0.66510    1.000
    C6       C        0.57390    0.30990    0.60240    1.000
    H3       H        0.56480    0.30320    0.54950    1.000
    C7       C        0.89260    0.01720    0.65780    1.000
    N8       N        0.89050    0.36680    0.86880    1.000
    C8       C        0.71390    0.01770    0.58710    1.000
    C9       C        0.08170    0.02210    0.65170    1.000
    N9       N        0.32510    0.05464    0.65370    1.000
    C10      C        0.67610    0.33630    0.72530    1.000
    C11      C        0.84770    0.20620    0.78020    1.000
    H4       H        0.80260    0.19930    0.80880    1.000
    C12      C        0.60180    0.32980    0.76050    1.000
    H5       H        0.61120    0.33650    0.81350    1.000
    C13      C        0.24200    0.97450    0.66350    1.000
    H6       H        0.22420    0.93490    0.66960    1.000
    C14      C        0.00810    0.23330    0.77530    1.000
    C15      C        0.39810    0.28730    0.58950    1.000
    H7       H        0.38080    0.31250    0.54360    1.000
    H8       H        0.35120    0.29320    0.61980    1.000
    C16      C        0.83590    0.38660    0.74690    1.000
    H9       H        0.83040    0.40080    0.69670    1.000
    C17      C        0.65820    0.16440    0.69630    1.000
    H10      H        0.66210    0.16600    0.74930    1.000
    C18      C        0.10940    0.25140    0.81710    1.000
    H11      H        0.13680    0.22150    0.85610    1.000
    H12      H        0.14930    0.25440    0.78060    1.000
    C19      C        0.80610    0.34270    0.84710    1.000
    H13      H        0.77590    0.32100    0.87920    1.000
    C20      C        0.10260    0.31220    0.85520    1.000
    C21      C        0.94070    0.22170    0.81710    1.000
    H14      H        0.95810    0.22440    0.87100    1.000
    C22      C        0.92960    0.97440    0.61660    1.000
    H15      H        0.89010    0.94390    0.59110    1.000
    C23      C        0.04640    0.06480    0.69210    1.000
    H16      H        0.08540    0.09550    0.71750    1.000
    C24      C        0.51170    0.31310    0.71560    1.000
    H17      H        0.46160    0.30780    0.73950    1.000
    C25      C        0.69200    0.17310    0.58620    1.000
    H18      H        0.72370    0.18190    0.54770    1.000
    C26      C        0.95030    0.06170    0.69510    1.000
    H19      H        0.92590    0.09050    0.72310    1.000
    C27      C        0.98110    0.22940    0.69650    1.000
    H20      H        0.02550    0.23710    0.66740    1.000
    C28      C        0.78910    0.01240    0.66320    1.000
    H21      H        0.78080    0.97390    0.68650    1.000
    H22      H        0.77740    0.04360    0.69800    1.000
    C29      C        0.02380    0.97590    0.61240    1.000
    H23      H        0.04800    0.94700    0.58430    1.000
    C30      C        0.88730    0.21370    0.65850    1.000
    H24      H        0.86900    0.21190    0.60460    1.000
    O9       O        0.46576    0.97523    0.30569    1.000
    H25      H        0.38000    0.07400    0.52100    1.000
    H26      H        0.61400    0.06200    0.45400    1.000
    H27      H        0.42900    0.97400    0.26100    1.000
    Co4      Co       0.95615    0.55967    0.18084    1.000
    Co5      Co       0.00093    0.63654    0.02750    1.000
    Co6      Co       0.04872    0.60379    0.85156    1.000
    O10      O        0.94483    0.55981    0.06601    1.000
    O11      O        0.06056    0.57577    0.96206    1.000
    O12      O        0.41990    0.80938    0.58117    1.000
    O13      O        0.12380    0.68351    0.88885    1.000
    N10      N        0.91630    0.64556    0.85610    1.000
    N11      N        0.77220    0.68116    0.83710    1.000
    O14      O        0.38410    0.85863    0.68020    1.000
    O15      O        0.07110    0.70934    0.99270    1.000
    O16      O        0.76230    0.53133    0.97390    1.000
    O17      O        0.87017    0.50804    0.90916    1.000
    N12      N        0.73120    0.85393    0.72920    1.000
    C31      C        0.26280    0.57100    0.85440    1.000
    H28      H        0.28500    0.61040    0.86310    1.000
    N13      N        0.31810    0.52264    0.84840    1.000
    N14      N        0.59040    0.89496    0.69470    1.000
    C32      C        0.00370    0.80436    0.86290    1.000
    C33      C        0.67640    0.70136    0.79880    1.000
    N15      N        0.89400    0.65112    0.92580    1.000
    C34      C        0.10000    0.72150    0.93390    1.000
    C35      C        0.83610    0.82535    0.85330    1.000
    H29      H        0.78480    0.82830    0.87620    1.000
    N16      N        0.17170    0.49241    0.83490    1.000
    C36      C        0.92610    0.80990    0.89760    1.000
    H30      H        0.93520    0.80320    0.95050    1.000
    C37      C        0.60740    0.51720    0.84220    1.000
    N17      N        0.60950    0.86680    0.63120    1.000
    C38      C        0.78610    0.51770    0.91290    1.000
    C39      C        0.41830    0.52210    0.84830    1.000
    N18      N        0.17490    0.55464    0.84630    1.000
    C40      C        0.82390    0.83630    0.77470    1.000
    C41      C        0.65230    0.70620    0.71980    1.000
    H31      H        0.69740    0.69930    0.69120    1.000
    C42      C        0.89820    0.82980    0.73950    1.000
    H32      H        0.88880    0.83650    0.68650    1.000
    C43      C        0.25800    0.47450    0.83650    1.000
    H33      H        0.27580    0.43490    0.83040    1.000
    C44      C        0.49190    0.73330    0.72470    1.000
    C45      C        0.10190    0.78730    0.91050    1.000
    H34      H        0.11920    0.81250    0.95640    1.000
    H35      H        0.14880    0.79320    0.88020    1.000
    C46      C        0.66410    0.88660    0.75310    1.000
    H36      H        0.66960    0.90080    0.80330    1.000
    C47      C        0.84180    0.66440    0.80370    1.000
    H37      H        0.83790    0.66600    0.75070    1.000
    C48      C        0.39060    0.75140    0.68290    1.000
    H38      H        0.36320    0.72150    0.64390    1.000
    H39      H        0.35070    0.75440    0.71940    1.000
    C49      C        0.69390    0.84270    0.65290    1.000
    H40      H        0.72410    0.82100    0.62080    1.000
    C50      C        0.39740    0.81220    0.64480    1.000
    C51      C        0.55930    0.72170    0.68290    1.000
    H41      H        0.54190    0.72440    0.62900    1.000
    C52      C        0.57040    0.47440    0.88340    1.000
    H42      H        0.60990    0.44390    0.90890    1.000
    C53      C        0.45360    0.56480    0.80790    1.000
    H43      H        0.41460    0.59550    0.78250    1.000
    C54      C        0.98830    0.81310    0.78440    1.000
    H44      H        0.03840    0.80780    0.76050    1.000
    C55      C        0.80800    0.67310    0.91380    1.000
    H45      H        0.77630    0.68190    0.95230    1.000
    C56      C        0.54970    0.56170    0.80490    1.000
    H46      H        0.57410    0.59050    0.77690    1.000
    C57      C        0.51890    0.72940    0.80350    1.000
    H47      H        0.47450    0.73710    0.83260    1.000
    C58      C        0.71090    0.51240    0.83680    1.000
    H48      H        0.71920    0.47390    0.81350    1.000
    H49      H        0.72260    0.54360    0.80200    1.000
    C59      C        0.47620    0.47590    0.88760    1.000
    H50      H        0.45200    0.44700    0.91570    1.000
    C60      C        0.61270    0.71370    0.84150    1.000
    H51      H        0.63100    0.71190    0.89540    1.000
    O18      O        0.03424    0.47523    0.19431    1.000
    H52      H        0.12000    0.57400    0.97900    1.000
    H53      H        0.88600    0.56200    0.04600    1.000
    H54      H        0.07100    0.47400    0.23900    1.000
    Co7      Co       0.45615    0.94033    0.68084    1.000
    Co8      Co       0.50093    0.86346    0.52750    1.000
    Co9      Co       0.54872    0.89621    0.35156    1.000
    O19      O        0.44483    0.94019    0.56601    1.000
    O20      O        0.56056    0.92423    0.46206    1.000
    O21      O        0.91990    0.69062    0.08117    1.000
    O22      O        0.62380    0.81649    0.38885    1.000
    N19      N        0.41630    0.85444    0.35610    1.000
    N20      N        0.27220    0.81884    0.33710    1.000
    O23      O        0.88410    0.64137    0.18020    1.000
    O24      O        0.57110    0.79066    0.49270    1.000
    O25      O        0.26230    0.96867    0.47390    1.000
    O26      O        0.37017    0.99196    0.40916    1.000
    N21      N        0.23120    0.64607    0.22920    1.000
    C61      C        0.76280    0.92900    0.35440    1.000
    H55      H        0.78500    0.88960    0.36310    1.000
    N22      N        0.81810    0.97736    0.34840    1.000
    N23      N        0.09040    0.60504    0.19470    1.000
    C62      C        0.50370    0.69564    0.36290    1.000
    C63      C        0.17640    0.79864    0.29880    1.000
    N24      N        0.39400    0.84888    0.42580    1.000
    C64      C        0.60000    0.77850    0.43390    1.000
    C65      C        0.33610    0.67465    0.35330    1.000
    H56      H        0.28480    0.67170    0.37620    1.000
    N25      N        0.67170    0.00759    0.33490    1.000
    C66      C        0.42610    0.69010    0.39760    1.000
    H57      H        0.43520    0.69680    0.45050    1.000
    C67      C        0.10740    0.98280    0.34220    1.000
    N26      N        0.10950    0.63320    0.13120    1.000
    C68      C        0.28610    0.98230    0.41290    1.000
    C69      C        0.91830    0.97790    0.34830    1.000
    N27      N        0.67490    0.94536    0.34630    1.000
    C70      C        0.32390    0.66370    0.27470    1.000
    C71      C        0.15230    0.79380    0.21980    1.000
    H58      H        0.19740    0.80070    0.19120    1.000
    C72      C        0.39820    0.67020    0.23950    1.000
    H59      H        0.38880    0.66350    0.18650    1.000
    C73      C        0.75800    0.02550    0.33650    1.000
    H60      H        0.77580    0.06510    0.33040    1.000
    C74      C        0.99190    0.76670    0.22470    1.000
    C75      C        0.60190    0.71270    0.41050    1.000
    H61      H        0.61920    0.68750    0.45640    1.000
    H62      H        0.64880    0.70680    0.38020    1.000
    C76      C        0.16410    0.61340    0.25310    1.000
    H63      H        0.16960    0.59920    0.30330    1.000
    C77      C        0.34180    0.83560    0.30370    1.000
    H64      H        0.33790    0.83400    0.25070    1.000
    C78      C        0.89060    0.74860    0.18290    1.000
    H65      H        0.86320    0.77850    0.14390    1.000
    H66      H        0.85070    0.74560    0.21940    1.000
    C79      C        0.19390    0.65730    0.15290    1.000
    H67      H        0.22410    0.67900    0.12080    1.000
    C80      C        0.89740    0.68780    0.14480    1.000
    C81      C        0.05930    0.77830    0.18290    1.000
    H68      H        0.04190    0.77560    0.12900    1.000
    C82      C        0.07040    0.02560    0.38340    1.000
    H69      H        0.10990    0.05610    0.40890    1.000
    C83      C        0.95360    0.93520    0.30790    1.000
    H70      H        0.91460    0.90450    0.28250    1.000
    C84      C        0.48830    0.68690    0.28440    1.000
    H71      H        0.53840    0.69220    0.26050    1.000
    C85      C        0.30800    0.82690    0.41380    1.000
    H72      H        0.27630    0.81810    0.45230    1.000
    C86      C        0.04970    0.93830    0.30490    1.000
    H73      H        0.07410    0.90950    0.27690    1.000
    C87      C        0.01890    0.77060    0.30350    1.000
    H74      H        0.97450    0.76290    0.33260    1.000
    C88      C        0.21090    0.98760    0.33680    1.000
    H75      H        0.21920    0.02610    0.31350    1.000
    H76      H        0.22260    0.95640    0.30200    1.000
    C89      C        0.97620    0.02410    0.38760    1.000
    H77      H        0.95200    0.05300    0.41570    1.000
    C90      C        0.11270    0.78630    0.34150    1.000
    H78      H        0.13100    0.78810    0.39540    1.000
    O27      O        0.53424    0.02477    0.69431    1.000
    H79      H        0.62000    0.92600    0.47900    1.000
    H80      H        0.38600    0.93800    0.54600    1.000
    H81      H        0.57100    0.02600    0.73900    1.000
    Co10     Co       0.04385    0.44033    0.81916    1.000
    Co11     Co       0.99907    0.36346    0.97250    1.000
    Co12     Co       0.95128    0.39621    0.14844    1.000
    O28      O        0.05517    0.44019    0.93399    1.000
    O29      O        0.93944    0.42423    0.03794    1.000
    O30      O        0.58010    0.19062    0.41883    1.000
    O31      O        0.87620    0.31649    0.11115    1.000
    N28      N        0.08370    0.35444    0.14390    1.000
    N29      N        0.22780    0.31884    0.16290    1.000
    O32      O        0.61590    0.14137    0.31980    1.000
    O33      O        0.92890    0.29066    0.00730    1.000
    O34      O        0.23770    0.46867    0.02610    1.000
    O35      O        0.12983    0.49196    0.09084    1.000
    N30      N        0.26880    0.14607    0.27080    1.000
    C91      C        0.73720    0.42900    0.14560    1.000
    H82      H        0.71500    0.38960    0.13690    1.000
    N31      N        0.68190    0.47736    0.15160    1.000
    N32      N        0.40960    0.10504    0.30530    1.000
    C92      C        0.99630    0.19564    0.13710    1.000
    C93      C        0.32360    0.29864    0.20120    1.000
    N33      N        0.10600    0.34888    0.07420    1.000
    C94      C        0.90000    0.27850    0.06610    1.000
    C95      C        0.16390    0.17465    0.14670    1.000
    H83      H        0.21520    0.17170    0.12380    1.000
    N34      N        0.82830    0.50759    0.16510    1.000
    C96      C        0.07390    0.19010    0.10240    1.000
    H84      H        0.06480    0.19680    0.04950    1.000
    C97      C        0.39260    0.48280    0.15780    1.000
    N35      N        0.39050    0.13320    0.36880    1.000
    C98      C        0.21390    0.48230    0.08710    1.000
    C99      C        0.58170    0.47790    0.15170    1.000
    N36      N        0.82510    0.44536    0.15370    1.000
    C100     C        0.17610    0.16370    0.22530    1.000
    C101     C        0.34770    0.29380    0.28020    1.000
    H85      H        0.30260    0.30070    0.30880    1.000
    C102     C        0.10180    0.17020    0.26050    1.000
    H86      H        0.11120    0.16350    0.31350    1.000
    C103     C        0.74200    0.52550    0.16350    1.000
    H87      H        0.72420    0.56510    0.16960    1.000
    C104     C        0.50810    0.26670    0.27530    1.000
    C105     C        0.89810    0.21270    0.08950    1.000
    H88      H        0.88080    0.18750    0.04360    1.000
    H89      H        0.85120    0.20680    0.11980    1.000
    C106     C        0.33590    0.11340    0.24690    1.000
    H90      H        0.33040    0.09920    0.19670    1.000
    C107     C        0.15820    0.33560    0.19630    1.000
    H91      H        0.16210    0.33400    0.24930    1.000
    C108     C        0.60940    0.24860    0.31710    1.000
    H92      H        0.63680    0.27850    0.35610    1.000
    H93      H        0.64930    0.24560    0.28060    1.000
    C109     C        0.30610    0.15730    0.34710    1.000
    H94      H        0.27590    0.17900    0.37920    1.000
    C110     C        0.60260    0.18780    0.35520    1.000
    C111     C        0.44070    0.27830    0.31710    1.000
    H95      H        0.45810    0.27560    0.37100    1.000
    C112     C        0.42960    0.52560    0.11660    1.000
    H96      H        0.39010    0.55610    0.09110    1.000
    C113     C        0.54640    0.43520    0.19210    1.000
    H97      H        0.58540    0.40450    0.21750    1.000
    C114     C        0.01170    0.18690    0.21560    1.000
    H98      H        0.96160    0.19220    0.23950    1.000
    C115     C        0.19200    0.32690    0.08620    1.000
    H99      H        0.22370    0.31810    0.04770    1.000
    C116     C        0.45030    0.43830    0.19510    1.000
    H100     H        0.42590    0.40950    0.22310    1.000
    C117     C        0.48110    0.27060    0.19650    1.000
    H101     H        0.52550    0.26290    0.16740    1.000
    C118     C        0.28910    0.48760    0.16320    1.000
    H102     H        0.28080    0.52610    0.18650    1.000
    H103     H        0.27740    0.45640    0.19800    1.000
    C119     C        0.52380    0.52410    0.11240    1.000
    H104     H        0.54800    0.55300    0.08430    1.000
    C120     C        0.38730    0.28630    0.15850    1.000
    H105     H        0.36900    0.28810    0.10460    1.000
    O36      O        0.96576    0.52477    0.80569    1.000
    H106     H        0.88000    0.42600    0.02100    1.000
    H107     H        0.11400    0.43800    0.95400    1.000
    H108     H        0.92900    0.52600    0.76100    1.000
    Co13     Co       0.50000    0.00000    0.50000    1.000
    Co14     Co       0.00000    0.50000    0.00000    1.000
