# CIF file generated by openbabel 3.1.0, see https://openbabel.org
data_I
_chemical_name_common 'image0'
_cell_length_a 16.154
_cell_length_b 33.51
_cell_length_c 41.623
_cell_angle_alpha 90
_cell_angle_beta 90
_cell_angle_gamma 90
_space_group_name_H-M_alt 'P 1'
_space_group_name_Hall 'P 1'
loop_
    _symmetry_equiv_pos_as_xyz
    x,y,z
loop_
    _atom_site_label
    _atom_site_type_symbol
    _atom_site_fract_x
    _atom_site_fract_y
    _atom_site_fract_z
    _atom_site_occupancy
    C1       C        0.66630    0.11700    0.95410    1.000
    C2       C        0.72770    0.15040    0.00620    1.000
    H1       H        0.78050    0.14950    0.01670    1.000
    H2       H        0.68560    0.14080    0.02050    1.000
    H3       H        0.71550    0.17740    0.00010    1.000
    C3       C        0.93710    0.23670    0.98580    1.000
    C4       C        0.88260    0.19700    0.94870    1.000
    C5       C        0.90870    0.30200    0.92490    1.000
    C6       C        0.70220    0.26360    0.94450    1.000
    H4       H        0.65660    0.27850    0.93580    1.000
    H5       H        0.69950    0.26390    0.96750    1.000
    H6       H        0.69930    0.23650    0.93700    1.000
    C7       C        0.96920    0.26960    0.00640    1.000
    H7       H        0.99760    0.25860    0.02460    1.000
    H8       H        0.92390    0.28580    0.01370    1.000
    H9       H        0.00690    0.28580    0.99410    1.000
    C8       C        0.70110    0.09230    0.93110    1.000
    C9       C        0.83900    0.18000    0.91970    1.000
    H10      H        0.84150    0.15140    0.92040    1.000
    H11      H        0.86560    0.18940    0.90050    1.000
    H12      H        0.78220    0.18840    0.91970    1.000
    C10      C        0.86200    0.27150    0.93940    1.000
    C11      C        0.66830    0.07470    0.90110    1.000
    H13      H        0.71030    0.05860    0.89120    1.000
    H14      H        0.65190    0.09560    0.88670    1.000
    H15      H        0.62120    0.05830    0.90610    1.000
    C12      C        0.89250    0.23640    0.95700    1.000
    C13      C        0.73000    0.12430    0.97640    1.000
    C14      C        0.00060    0.30390    0.92480    1.000
    H16      H        0.01830    0.32730    0.91340    1.000
    H17      H        0.02240    0.28050    0.91440    1.000
    H18      H        0.02050    0.30500    0.94650    1.000
    C15      C        0.78120    0.28180    0.93370    1.000
    N1       N        0.91930    0.17360    0.97100    1.000
    N2       N        0.95190    0.19840    0.99290    1.000
    N3       N        0.77980    0.08570    0.94050    1.000
    N4       N        0.85970    0.32850    0.91060    1.000
    N5       N        0.78190    0.31570    0.91650    1.000
    N6       N        0.79930    0.10500    0.96810    1.000
    O1       O        0.05330    0.11600    0.98870    1.000
    O2       O        0.06960    0.15120    0.10376    1.000
    O3       O        0.04310    0.16630    0.04180    1.000
    O4       O        0.03090    0.22490    0.08780    1.000
    O5       O        0.93280    0.09020    0.09680    1.000
    O6       O        0.91050    0.16500    0.09279    1.000
    O7       O        0.19640    0.21500    0.09773    1.000
    O8       O        0.06800    0.09930    0.95140    1.000
    O9       O        0.05610    0.09100    0.05213    1.000
    O10      O        0.90660    0.12240    0.03270    1.000
    Co1      Co       0.92266    0.11206    0.98134    1.000
    Mo1      Mo       0.96947    0.12745    0.06336    1.000
    Mo2      Mo       0.97020    0.20221    0.12239    1.000
    Mo3      Mo       0.11951    0.20200    0.06533    1.000
    O11      O        0.13800    0.11050    0.93070    1.000
    C16      C        0.66630    0.61700    0.45410    1.000
    C17      C        0.72770    0.65040    0.50620    1.000
    H19      H        0.78050    0.64950    0.51670    1.000
    H20      H        0.68560    0.64080    0.52050    1.000
    H21      H        0.71550    0.67740    0.50010    1.000
    C18      C        0.93710    0.73670    0.48580    1.000
    C19      C        0.88260    0.69700    0.44870    1.000
    C20      C        0.90870    0.80200    0.42490    1.000
    C21      C        0.70220    0.76360    0.44450    1.000
    H22      H        0.65660    0.77850    0.43580    1.000
    H23      H        0.69950    0.76390    0.46750    1.000
    H24      H        0.69930    0.73650    0.43700    1.000
    C22      C        0.96920    0.76960    0.50640    1.000
    H25      H        0.99760    0.75860    0.52460    1.000
    H26      H        0.92390    0.78580    0.51370    1.000
    H27      H        0.00690    0.78580    0.49410    1.000
    C23      C        0.70110    0.59230    0.43110    1.000
    C24      C        0.83900    0.68000    0.41970    1.000
    H28      H        0.84150    0.65140    0.42040    1.000
    H29      H        0.86560    0.68940    0.40050    1.000
    H30      H        0.78220    0.68840    0.41970    1.000
    C25      C        0.86200    0.77150    0.43940    1.000
    C26      C        0.66830    0.57470    0.40110    1.000
    H31      H        0.71030    0.55860    0.39120    1.000
    H32      H        0.65190    0.59560    0.38670    1.000
    H33      H        0.62120    0.55830    0.40610    1.000
    C27      C        0.89250    0.73640    0.45700    1.000
    C28      C        0.73000    0.62430    0.47640    1.000
    C29      C        0.00060    0.80390    0.42480    1.000
    H34      H        0.01830    0.82730    0.41340    1.000
    H35      H        0.02240    0.78050    0.41440    1.000
    H36      H        0.02050    0.80500    0.44650    1.000
    C30      C        0.78120    0.78180    0.43370    1.000
    N7       N        0.91930    0.67360    0.47100    1.000
    N8       N        0.95190    0.69840    0.49290    1.000
    N9       N        0.77980    0.58570    0.44050    1.000
    N10      N        0.85970    0.82850    0.41060    1.000
    N11      N        0.78190    0.81570    0.41650    1.000
    N12      N        0.79930    0.60500    0.46810    1.000
    O12      O        0.05330    0.61600    0.48870    1.000
    O13      O        0.06960    0.65120    0.60376    1.000
    O14      O        0.04310    0.66630    0.54180    1.000
    O15      O        0.03090    0.72490    0.58780    1.000
    O16      O        0.93280    0.59020    0.59680    1.000
    O17      O        0.91050    0.66500    0.59279    1.000
    O18      O        0.19640    0.71500    0.59773    1.000
    O19      O        0.06800    0.59930    0.45140    1.000
    O20      O        0.05610    0.59100    0.55213    1.000
    O21      O        0.90660    0.62240    0.53270    1.000
    Co2      Co       0.92266    0.61206    0.48134    1.000
    Mo4      Mo       0.96947    0.62745    0.56336    1.000
    Mo5      Mo       0.97020    0.70221    0.62239    1.000
    Mo6      Mo       0.11951    0.70200    0.56533    1.000
    O22      O        0.13800    0.61050    0.43070    1.000
    C31      C        0.16630    0.11700    0.45410    1.000
    C32      C        0.22770    0.15040    0.50620    1.000
    H37      H        0.28050    0.14950    0.51670    1.000
    H38      H        0.18560    0.14080    0.52050    1.000
    H39      H        0.21550    0.17740    0.50010    1.000
    C33      C        0.43710    0.23670    0.48580    1.000
    C34      C        0.38260    0.19700    0.44870    1.000
    C35      C        0.40870    0.30200    0.42490    1.000
    C36      C        0.20220    0.26360    0.44450    1.000
    H40      H        0.15660    0.27850    0.43580    1.000
    H41      H        0.19950    0.26390    0.46750    1.000
    H42      H        0.19930    0.23650    0.43700    1.000
    C37      C        0.46920    0.26960    0.50640    1.000
    H43      H        0.49760    0.25860    0.52460    1.000
    H44      H        0.42390    0.28580    0.51370    1.000
    H45      H        0.50690    0.28580    0.49410    1.000
    C38      C        0.20110    0.09230    0.43110    1.000
    C39      C        0.33900    0.18000    0.41970    1.000
    H46      H        0.34150    0.15140    0.42040    1.000
    H47      H        0.36560    0.18940    0.40050    1.000
    H48      H        0.28220    0.18840    0.41970    1.000
    C40      C        0.36200    0.27150    0.43940    1.000
    C41      C        0.16830    0.07470    0.40110    1.000
    H49      H        0.21030    0.05860    0.39120    1.000
    H50      H        0.15190    0.09560    0.38670    1.000
    H51      H        0.12120    0.05830    0.40610    1.000
    C42      C        0.39250    0.23640    0.45700    1.000
    C43      C        0.23000    0.12430    0.47640    1.000
    C44      C        0.50060    0.30390    0.42480    1.000
    H52      H        0.51830    0.32730    0.41340    1.000
    H53      H        0.52240    0.28050    0.41440    1.000
    H54      H        0.52050    0.30500    0.44650    1.000
    C45      C        0.28120    0.28180    0.43370    1.000
    N13      N        0.41930    0.17360    0.47100    1.000
    N14      N        0.45190    0.19840    0.49290    1.000
    N15      N        0.27980    0.08570    0.44050    1.000
    N16      N        0.35970    0.32850    0.41060    1.000
    N17      N        0.28190    0.31570    0.41650    1.000
    N18      N        0.29930    0.10500    0.46810    1.000
    O23      O        0.55330    0.11600    0.48870    1.000
    O24      O        0.56960    0.15120    0.60376    1.000
    O25      O        0.54310    0.16630    0.54180    1.000
    O26      O        0.53090    0.22490    0.58780    1.000
    O27      O        0.43280    0.09020    0.59680    1.000
    O28      O        0.41050    0.16500    0.59279    1.000
    O29      O        0.69640    0.21500    0.59773    1.000
    O30      O        0.56800    0.09930    0.45140    1.000
    O31      O        0.55610    0.09100    0.55213    1.000
    O32      O        0.40660    0.12240    0.53270    1.000
    Co3      Co       0.42266    0.11206    0.48134    1.000
    Mo7      Mo       0.46947    0.12745    0.56336    1.000
    Mo8      Mo       0.47020    0.20221    0.62239    1.000
    Mo9      Mo       0.61951    0.20200    0.56533    1.000
    O33      O        0.63800    0.11050    0.43070    1.000
    C46      C        0.16630    0.61700    0.95410    1.000
    C47      C        0.22770    0.65040    0.00620    1.000
    H55      H        0.28050    0.64950    0.01670    1.000
    H56      H        0.18560    0.64080    0.02050    1.000
    H57      H        0.21550    0.67740    0.00010    1.000
    C48      C        0.43710    0.73670    0.98580    1.000
    C49      C        0.38260    0.69700    0.94870    1.000
    C50      C        0.40870    0.80200    0.92490    1.000
    C51      C        0.20220    0.76360    0.94450    1.000
    H58      H        0.15660    0.77850    0.93580    1.000
    H59      H        0.19950    0.76390    0.96750    1.000
    H60      H        0.19930    0.73650    0.93700    1.000
    C52      C        0.46920    0.76960    0.00640    1.000
    H61      H        0.49760    0.75860    0.02460    1.000
    H62      H        0.42390    0.78580    0.01370    1.000
    H63      H        0.50690    0.78580    0.99410    1.000
    C53      C        0.20110    0.59230    0.93110    1.000
    C54      C        0.33900    0.68000    0.91970    1.000
    H64      H        0.34150    0.65140    0.92040    1.000
    H65      H        0.36560    0.68940    0.90050    1.000
    H66      H        0.28220    0.68840    0.91970    1.000
    C55      C        0.36200    0.77150    0.93940    1.000
    C56      C        0.16830    0.57470    0.90110    1.000
    H67      H        0.21030    0.55860    0.89120    1.000
    H68      H        0.15190    0.59560    0.88670    1.000
    H69      H        0.12120    0.55830    0.90610    1.000
    C57      C        0.39250    0.73640    0.95700    1.000
    C58      C        0.23000    0.62430    0.97640    1.000
    C59      C        0.50060    0.80390    0.92480    1.000
    H70      H        0.51830    0.82730    0.91340    1.000
    H71      H        0.52240    0.78050    0.91440    1.000
    H72      H        0.52050    0.80500    0.94650    1.000
    C60      C        0.28120    0.78180    0.93370    1.000
    N19      N        0.41930    0.67360    0.97100    1.000
    N20      N        0.45190    0.69840    0.99290    1.000
    N21      N        0.27980    0.58570    0.94050    1.000
    N22      N        0.35970    0.82850    0.91060    1.000
    N23      N        0.28190    0.81570    0.91650    1.000
    N24      N        0.29930    0.60500    0.96810    1.000
    O34      O        0.55330    0.61600    0.98870    1.000
    O35      O        0.56960    0.65120    0.10376    1.000
    O36      O        0.54310    0.66630    0.04180    1.000
    O37      O        0.53090    0.72490    0.08780    1.000
    O38      O        0.43280    0.59020    0.09680    1.000
    O39      O        0.41050    0.66500    0.09279    1.000
    O40      O        0.69640    0.71500    0.09773    1.000
    O41      O        0.56800    0.59930    0.95140    1.000
    O42      O        0.55610    0.59100    0.05213    1.000
    O43      O        0.40660    0.62240    0.03270    1.000
    Co4      Co       0.42266    0.61206    0.98134    1.000
    Mo10     Mo       0.46947    0.62745    0.06336    1.000
    Mo11     Mo       0.47020    0.70221    0.12239    1.000
    Mo12     Mo       0.61951    0.70200    0.06533    1.000
    O44      O        0.63800    0.61050    0.93070    1.000
    C61      C        0.08370    0.63300    0.95410    1.000
    C62      C        0.02230    0.59960    0.00620    1.000
    H73      H        0.96950    0.60050    0.01670    1.000
    H74      H        0.06440    0.60920    0.02050    1.000
    H75      H        0.03450    0.57260    0.00010    1.000
    C63      C        0.81290    0.51330    0.98580    1.000
    C64      C        0.86740    0.55300    0.94870    1.000
    C65      C        0.84130    0.44800    0.92490    1.000
    C66      C        0.04780    0.48640    0.94450    1.000
    H76      H        0.09340    0.47150    0.93580    1.000
    H77      H        0.05050    0.48610    0.96750    1.000
    H78      H        0.05070    0.51350    0.93700    1.000
    C67      C        0.78080    0.48040    0.00640    1.000
    H79      H        0.75240    0.49140    0.02460    1.000
    H80      H        0.82610    0.46420    0.01370    1.000
    H81      H        0.74310    0.46420    0.99410    1.000
    C68      C        0.04890    0.65770    0.93110    1.000
    C69      C        0.91100    0.57000    0.91970    1.000
    H82      H        0.90850    0.59860    0.92040    1.000
    H83      H        0.88440    0.56060    0.90050    1.000
    H84      H        0.96780    0.56160    0.91970    1.000
    C70      C        0.88800    0.47850    0.93940    1.000
    C71      C        0.08170    0.67530    0.90110    1.000
    H85      H        0.03970    0.69140    0.89120    1.000
    H86      H        0.09810    0.65440    0.88670    1.000
    H87      H        0.12880    0.69170    0.90610    1.000
    C72      C        0.85750    0.51360    0.95700    1.000
    C73      C        0.02000    0.62570    0.97640    1.000
    C74      C        0.74940    0.44610    0.92480    1.000
    H88      H        0.73170    0.42270    0.91340    1.000
    H89      H        0.72760    0.46950    0.91440    1.000
    H90      H        0.72950    0.44500    0.94650    1.000
    C75      C        0.96880    0.46820    0.93370    1.000
    N25      N        0.83070    0.57640    0.97100    1.000
    N26      N        0.79810    0.55160    0.99290    1.000
    N27      N        0.97020    0.66430    0.94050    1.000
    N28      N        0.89030    0.42150    0.91060    1.000
    N29      N        0.96810    0.43430    0.91650    1.000
    N30      N        0.95070    0.64500    0.96810    1.000
    O45      O        0.69670    0.63400    0.98870    1.000
    O46      O        0.68040    0.59880    0.10376    1.000
    O47      O        0.70690    0.58370    0.04180    1.000
    O48      O        0.71910    0.52510    0.08780    1.000
    O49      O        0.81720    0.65980    0.09680    1.000
    O50      O        0.83950    0.58500    0.09279    1.000
    O51      O        0.55360    0.53500    0.09773    1.000
    O52      O        0.68200    0.65070    0.95140    1.000
    O53      O        0.69390    0.65900    0.05213    1.000
    O54      O        0.84340    0.62760    0.03270    1.000
    Co5      Co       0.82734    0.63794    0.98134    1.000
    Mo13     Mo       0.78053    0.62255    0.06336    1.000
    Mo14     Mo       0.77980    0.54779    0.12239    1.000
    Mo15     Mo       0.63049    0.54800    0.06533    1.000
    O55      O        0.61200    0.63950    0.93070    1.000
    C76      C        0.08370    0.13300    0.45410    1.000
    C77      C        0.02230    0.09960    0.50620    1.000
    H91      H        0.96950    0.10050    0.51670    1.000
    H92      H        0.06440    0.10920    0.52050    1.000
    H93      H        0.03450    0.07260    0.50010    1.000
    C78      C        0.81290    0.01330    0.48580    1.000
    C79      C        0.86740    0.05300    0.44870    1.000
    C80      C        0.84130    0.94800    0.42490    1.000
    C81      C        0.04780    0.98640    0.44450    1.000
    H94      H        0.09340    0.97150    0.43580    1.000
    H95      H        0.05050    0.98610    0.46750    1.000
    H96      H        0.05070    0.01350    0.43700    1.000
    C82      C        0.78080    0.98040    0.50640    1.000
    H97      H        0.75240    0.99140    0.52460    1.000
    H98      H        0.82610    0.96420    0.51370    1.000
    H99      H        0.74310    0.96420    0.49410    1.000
    C83      C        0.04890    0.15770    0.43110    1.000
    C84      C        0.91100    0.07000    0.41970    1.000
    H100     H        0.90850    0.09860    0.42040    1.000
    H101     H        0.88440    0.06060    0.40050    1.000
    H102     H        0.96780    0.06160    0.41970    1.000
    C85      C        0.88800    0.97850    0.43940    1.000
    C86      C        0.08170    0.17530    0.40110    1.000
    H103     H        0.03970    0.19140    0.39120    1.000
    H104     H        0.09810    0.15440    0.38670    1.000
    H105     H        0.12880    0.19170    0.40610    1.000
    C87      C        0.85750    0.01360    0.45700    1.000
    C88      C        0.02000    0.12570    0.47640    1.000
    C89      C        0.74940    0.94610    0.42480    1.000
    H106     H        0.73170    0.92270    0.41340    1.000
    H107     H        0.72760    0.96950    0.41440    1.000
    H108     H        0.72950    0.94500    0.44650    1.000
    C90      C        0.96880    0.96820    0.43370    1.000
    N31      N        0.83070    0.07640    0.47100    1.000
    N32      N        0.79810    0.05160    0.49290    1.000
    N33      N        0.97020    0.16430    0.44050    1.000
    N34      N        0.89030    0.92150    0.41060    1.000
    N35      N        0.96810    0.93430    0.41650    1.000
    N36      N        0.95070    0.14500    0.46810    1.000
    O56      O        0.69670    0.13400    0.48870    1.000
    O57      O        0.68040    0.09880    0.60376    1.000
    O58      O        0.70690    0.08370    0.54180    1.000
    O59      O        0.71910    0.02510    0.58780    1.000
    O60      O        0.81720    0.15980    0.59680    1.000
    O61      O        0.83950    0.08500    0.59279    1.000
    O62      O        0.55360    0.03500    0.59773    1.000
    O63      O        0.68200    0.15070    0.45140    1.000
    O64      O        0.69390    0.15900    0.55213    1.000
    O65      O        0.84340    0.12760    0.53270    1.000
    Co6      Co       0.82734    0.13794    0.48134    1.000
    Mo16     Mo       0.78053    0.12255    0.56336    1.000
    Mo17     Mo       0.77980    0.04779    0.62239    1.000
    Mo18     Mo       0.63049    0.04800    0.56533    1.000
    O66      O        0.61200    0.13950    0.43070    1.000
    C91      C        0.58370    0.63300    0.45410    1.000
    C92      C        0.52230    0.59960    0.50620    1.000
    H109     H        0.46950    0.60050    0.51670    1.000
    H110     H        0.56440    0.60920    0.52050    1.000
    H111     H        0.53450    0.57260    0.50010    1.000
    C93      C        0.31290    0.51330    0.48580    1.000
    C94      C        0.36740    0.55300    0.44870    1.000
    C95      C        0.34130    0.44800    0.42490    1.000
    C96      C        0.54780    0.48640    0.44450    1.000
    H112     H        0.59340    0.47150    0.43580    1.000
    H113     H        0.55050    0.48610    0.46750    1.000
    H114     H        0.55070    0.51350    0.43700    1.000
    C97      C        0.28080    0.48040    0.50640    1.000
    H115     H        0.25240    0.49140    0.52460    1.000
    H116     H        0.32610    0.46420    0.51370    1.000
    H117     H        0.24310    0.46420    0.49410    1.000
    C98      C        0.54890    0.65770    0.43110    1.000
    C99      C        0.41100    0.57000    0.41970    1.000
    H118     H        0.40850    0.59860    0.42040    1.000
    H119     H        0.38440    0.56060    0.40050    1.000
    H120     H        0.46780    0.56160    0.41970    1.000
    C100     C        0.38800    0.47850    0.43940    1.000
    C101     C        0.58170    0.67530    0.40110    1.000
    H121     H        0.53970    0.69140    0.39120    1.000
    H122     H        0.59810    0.65440    0.38670    1.000
    H123     H        0.62880    0.69170    0.40610    1.000
    C102     C        0.35750    0.51360    0.45700    1.000
    C103     C        0.52000    0.62570    0.47640    1.000
    C104     C        0.24940    0.44610    0.42480    1.000
    H124     H        0.23170    0.42270    0.41340    1.000
    H125     H        0.22760    0.46950    0.41440    1.000
    H126     H        0.22950    0.44500    0.44650    1.000
    C105     C        0.46880    0.46820    0.43370    1.000
    N37      N        0.33070    0.57640    0.47100    1.000
    N38      N        0.29810    0.55160    0.49290    1.000
    N39      N        0.47020    0.66430    0.44050    1.000
    N40      N        0.39030    0.42150    0.41060    1.000
    N41      N        0.46810    0.43430    0.41650    1.000
    N42      N        0.45070    0.64500    0.46810    1.000
    O67      O        0.19670    0.63400    0.48870    1.000
    O68      O        0.18040    0.59880    0.60376    1.000
    O69      O        0.20690    0.58370    0.54180    1.000
    O70      O        0.21910    0.52510    0.58780    1.000
    O71      O        0.31720    0.65980    0.59680    1.000
    O72      O        0.33950    0.58500    0.59279    1.000
    O73      O        0.05360    0.53500    0.59773    1.000
    O74      O        0.18200    0.65070    0.45140    1.000
    O75      O        0.19390    0.65900    0.55213    1.000
    O76      O        0.34340    0.62760    0.53270    1.000
    Co7      Co       0.32734    0.63794    0.48134    1.000
    Mo19     Mo       0.28053    0.62255    0.56336    1.000
    Mo20     Mo       0.27980    0.54779    0.62239    1.000
    Mo21     Mo       0.13049    0.54800    0.56533    1.000
    O77      O        0.11200    0.63950    0.43070    1.000
    C106     C        0.58370    0.13300    0.95410    1.000
    C107     C        0.52230    0.09960    0.00620    1.000
    H127     H        0.46950    0.10050    0.01670    1.000
    H128     H        0.56440    0.10920    0.02050    1.000
    H129     H        0.53450    0.07260    0.00010    1.000
    C108     C        0.31290    0.01330    0.98580    1.000
    C109     C        0.36740    0.05300    0.94870    1.000
    C110     C        0.34130    0.94800    0.92490    1.000
    C111     C        0.54780    0.98640    0.94450    1.000
    H130     H        0.59340    0.97150    0.93580    1.000
    H131     H        0.55050    0.98610    0.96750    1.000
    H132     H        0.55070    0.01350    0.93700    1.000
    C112     C        0.28080    0.98040    0.00640    1.000
    H133     H        0.25240    0.99140    0.02460    1.000
    H134     H        0.32610    0.96420    0.01370    1.000
    H135     H        0.24310    0.96420    0.99410    1.000
    C113     C        0.54890    0.15770    0.93110    1.000
    C114     C        0.41100    0.07000    0.91970    1.000
    H136     H        0.40850    0.09860    0.92040    1.000
    H137     H        0.38440    0.06060    0.90050    1.000
    H138     H        0.46780    0.06160    0.91970    1.000
    C115     C        0.38800    0.97850    0.93940    1.000
    C116     C        0.58170    0.17530    0.90110    1.000
    H139     H        0.53970    0.19140    0.89120    1.000
    H140     H        0.59810    0.15440    0.88670    1.000
    H141     H        0.62880    0.19170    0.90610    1.000
    C117     C        0.35750    0.01360    0.95700    1.000
    C118     C        0.52000    0.12570    0.97640    1.000
    C119     C        0.24940    0.94610    0.92480    1.000
    H142     H        0.23170    0.92270    0.91340    1.000
    H143     H        0.22760    0.96950    0.91440    1.000
    H144     H        0.22950    0.94500    0.94650    1.000
    C120     C        0.46880    0.96820    0.93370    1.000
    N43      N        0.33070    0.07640    0.97100    1.000
    N44      N        0.29810    0.05160    0.99290    1.000
    N45      N        0.47020    0.16430    0.94050    1.000
    N46      N        0.39030    0.92150    0.91060    1.000
    N47      N        0.46810    0.93430    0.91650    1.000
    N48      N        0.45070    0.14500    0.96810    1.000
    O78      O        0.19670    0.13400    0.98870    1.000
    O79      O        0.18040    0.09880    0.10376    1.000
    O80      O        0.20690    0.08370    0.04180    1.000
    O81      O        0.21910    0.02510    0.08780    1.000
    O82      O        0.31720    0.15980    0.09680    1.000
    O83      O        0.33950    0.08500    0.09279    1.000
    O84      O        0.05360    0.03500    0.09773    1.000
    O85      O        0.18200    0.15070    0.95140    1.000
    O86      O        0.19390    0.15900    0.05213    1.000
    O87      O        0.34340    0.12760    0.03270    1.000
    Co8      Co       0.32734    0.13794    0.98134    1.000
    Mo22     Mo       0.28053    0.12255    0.06336    1.000
    Mo23     Mo       0.27980    0.04779    0.12239    1.000
    Mo24     Mo       0.13049    0.04800    0.06533    1.000
    O88      O        0.11200    0.13950    0.93070    1.000
    C121     C        0.08370    0.11700    0.79590    1.000
    C122     C        0.02230    0.15040    0.74380    1.000
    H145     H        0.96950    0.14950    0.73330    1.000
    H146     H        0.06440    0.14080    0.72950    1.000
    H147     H        0.03450    0.17740    0.74990    1.000
    C123     C        0.81290    0.23670    0.76420    1.000
    C124     C        0.86740    0.19700    0.80130    1.000
    C125     C        0.84130    0.30200    0.82510    1.000
    C126     C        0.04780    0.26360    0.80550    1.000
    H148     H        0.09340    0.27850    0.81420    1.000
    H149     H        0.05050    0.26390    0.78250    1.000
    H150     H        0.05070    0.23650    0.81300    1.000
    C127     C        0.78080    0.26960    0.74360    1.000
    H151     H        0.75240    0.25860    0.72540    1.000
    H152     H        0.82610    0.28580    0.73630    1.000
    H153     H        0.74310    0.28580    0.75590    1.000
    C128     C        0.04890    0.09230    0.81890    1.000
    C129     C        0.91100    0.18000    0.83030    1.000
    H154     H        0.90850    0.15140    0.82960    1.000
    H155     H        0.88440    0.18940    0.84950    1.000
    H156     H        0.96780    0.18840    0.83030    1.000
    C130     C        0.88800    0.27150    0.81060    1.000
    C131     C        0.08170    0.07470    0.84890    1.000
    H157     H        0.03970    0.05860    0.85880    1.000
    H158     H        0.09810    0.09560    0.86330    1.000
    H159     H        0.12880    0.05830    0.84390    1.000
    C132     C        0.85750    0.23640    0.79300    1.000
    C133     C        0.02000    0.12430    0.77360    1.000
    C134     C        0.74940    0.30390    0.82520    1.000
    H160     H        0.73170    0.32730    0.83660    1.000
    H161     H        0.72760    0.28050    0.83560    1.000
    H162     H        0.72950    0.30500    0.80350    1.000
    C135     C        0.96880    0.28180    0.81630    1.000
    N49      N        0.83070    0.17360    0.77900    1.000
    N50      N        0.79810    0.19840    0.75710    1.000
    N51      N        0.97020    0.08570    0.80950    1.000
    N52      N        0.89030    0.32850    0.83940    1.000
    N53      N        0.96810    0.31570    0.83350    1.000
    N54      N        0.95070    0.10500    0.78190    1.000
    O89      O        0.69670    0.11600    0.76130    1.000
    O90      O        0.68040    0.15120    0.64624    1.000
    O91      O        0.70690    0.16630    0.70820    1.000
    O92      O        0.71910    0.22490    0.66220    1.000
    O93      O        0.81720    0.09020    0.65320    1.000
    O94      O        0.83950    0.16500    0.65721    1.000
    O95      O        0.55360    0.21500    0.65227    1.000
    O96      O        0.68200    0.09930    0.79860    1.000
    O97      O        0.69390    0.09100    0.69787    1.000
    O98      O        0.84340    0.12240    0.71730    1.000
    Co9      Co       0.82734    0.11206    0.76866    1.000
    Mo25     Mo       0.78053    0.12745    0.68664    1.000
    Mo26     Mo       0.77980    0.20221    0.62761    1.000
    Mo27     Mo       0.63049    0.20200    0.68467    1.000
    O99      O        0.61200    0.11050    0.81930    1.000
    C136     C        0.08370    0.61700    0.29590    1.000
    C137     C        0.02230    0.65040    0.24380    1.000
    H163     H        0.96950    0.64950    0.23330    1.000
    H164     H        0.06440    0.64080    0.22950    1.000
    H165     H        0.03450    0.67740    0.24990    1.000
    C138     C        0.81290    0.73670    0.26420    1.000
    C139     C        0.86740    0.69700    0.30130    1.000
    C140     C        0.84130    0.80200    0.32510    1.000
    C141     C        0.04780    0.76360    0.30550    1.000
    H166     H        0.09340    0.77850    0.31420    1.000
    H167     H        0.05050    0.76390    0.28250    1.000
    H168     H        0.05070    0.73650    0.31300    1.000
    C142     C        0.78080    0.76960    0.24360    1.000
    H169     H        0.75240    0.75860    0.22540    1.000
    H170     H        0.82610    0.78580    0.23630    1.000
    H171     H        0.74310    0.78580    0.25590    1.000
    C143     C        0.04890    0.59230    0.31890    1.000
    C144     C        0.91100    0.68000    0.33030    1.000
    H172     H        0.90850    0.65140    0.32960    1.000
    H173     H        0.88440    0.68940    0.34950    1.000
    H174     H        0.96780    0.68840    0.33030    1.000
    C145     C        0.88800    0.77150    0.31060    1.000
    C146     C        0.08170    0.57470    0.34890    1.000
    H175     H        0.03970    0.55860    0.35880    1.000
    H176     H        0.09810    0.59560    0.36330    1.000
    H177     H        0.12880    0.55830    0.34390    1.000
    C147     C        0.85750    0.73640    0.29300    1.000
    C148     C        0.02000    0.62430    0.27360    1.000
    C149     C        0.74940    0.80390    0.32520    1.000
    H178     H        0.73170    0.82730    0.33660    1.000
    H179     H        0.72760    0.78050    0.33560    1.000
    H180     H        0.72950    0.80500    0.30350    1.000
    C150     C        0.96880    0.78180    0.31630    1.000
    N55      N        0.83070    0.67360    0.27900    1.000
    N56      N        0.79810    0.69840    0.25710    1.000
    N57      N        0.97020    0.58570    0.30950    1.000
    N58      N        0.89030    0.82850    0.33940    1.000
    N59      N        0.96810    0.81570    0.33350    1.000
    N60      N        0.95070    0.60500    0.28190    1.000
    O100     O        0.69670    0.61600    0.26130    1.000
    O101     O        0.68040    0.65120    0.14624    1.000
    O102     O        0.70690    0.66630    0.20820    1.000
    O103     O        0.71910    0.72490    0.16220    1.000
    O104     O        0.81720    0.59020    0.15320    1.000
    O105     O        0.83950    0.66500    0.15721    1.000
    O106     O        0.55360    0.71500    0.15227    1.000
    O107     O        0.68200    0.59930    0.29860    1.000
    O108     O        0.69390    0.59100    0.19787    1.000
    O109     O        0.84340    0.62240    0.21730    1.000
    Co10     Co       0.82734    0.61206    0.26866    1.000
    Mo28     Mo       0.78053    0.62745    0.18664    1.000
    Mo29     Mo       0.77980    0.70221    0.12761    1.000
    Mo30     Mo       0.63049    0.70200    0.18467    1.000
    O110     O        0.61200    0.61050    0.31930    1.000
    C151     C        0.58370    0.11700    0.29590    1.000
    C152     C        0.52230    0.15040    0.24380    1.000
    H181     H        0.46950    0.14950    0.23330    1.000
    H182     H        0.56440    0.14080    0.22950    1.000
    H183     H        0.53450    0.17740    0.24990    1.000
    C153     C        0.31290    0.23670    0.26420    1.000
    C154     C        0.36740    0.19700    0.30130    1.000
    C155     C        0.34130    0.30200    0.32510    1.000
    C156     C        0.54780    0.26360    0.30550    1.000
    H184     H        0.59340    0.27850    0.31420    1.000
    H185     H        0.55050    0.26390    0.28250    1.000
    H186     H        0.55070    0.23650    0.31300    1.000
    C157     C        0.28080    0.26960    0.24360    1.000
    H187     H        0.25240    0.25860    0.22540    1.000
    H188     H        0.32610    0.28580    0.23630    1.000
    H189     H        0.24310    0.28580    0.25590    1.000
    C158     C        0.54890    0.09230    0.31890    1.000
    C159     C        0.41100    0.18000    0.33030    1.000
    H190     H        0.40850    0.15140    0.32960    1.000
    H191     H        0.38440    0.18940    0.34950    1.000
    H192     H        0.46780    0.18840    0.33030    1.000
    C160     C        0.38800    0.27150    0.31060    1.000
    C161     C        0.58170    0.07470    0.34890    1.000
    H193     H        0.53970    0.05860    0.35880    1.000
    H194     H        0.59810    0.09560    0.36330    1.000
    H195     H        0.62880    0.05830    0.34390    1.000
    C162     C        0.35750    0.23640    0.29300    1.000
    C163     C        0.52000    0.12430    0.27360    1.000
    C164     C        0.24940    0.30390    0.32520    1.000
    H196     H        0.23170    0.32730    0.33660    1.000
    H197     H        0.22760    0.28050    0.33560    1.000
    H198     H        0.22950    0.30500    0.30350    1.000
    C165     C        0.46880    0.28180    0.31630    1.000
    N61      N        0.33070    0.17360    0.27900    1.000
    N62      N        0.29810    0.19840    0.25710    1.000
    N63      N        0.47020    0.08570    0.30950    1.000
    N64      N        0.39030    0.32850    0.33940    1.000
    N65      N        0.46810    0.31570    0.33350    1.000
    N66      N        0.45070    0.10500    0.28190    1.000
    O111     O        0.19670    0.11600    0.26130    1.000
    O112     O        0.18040    0.15120    0.14624    1.000
    O113     O        0.20690    0.16630    0.20820    1.000
    O114     O        0.21910    0.22490    0.16220    1.000
    O115     O        0.31720    0.09020    0.15320    1.000
    O116     O        0.33950    0.16500    0.15721    1.000
    O117     O        0.05360    0.21500    0.15227    1.000
    O118     O        0.18200    0.09930    0.29860    1.000
    O119     O        0.19390    0.09100    0.19787    1.000
    O120     O        0.34340    0.12240    0.21730    1.000
    Co11     Co       0.32734    0.11206    0.26866    1.000
    Mo31     Mo       0.28053    0.12745    0.18664    1.000
    Mo32     Mo       0.27980    0.20221    0.12761    1.000
    Mo33     Mo       0.13049    0.20200    0.18467    1.000
    O121     O        0.11200    0.11050    0.31930    1.000
    C166     C        0.58370    0.61700    0.79590    1.000
    C167     C        0.52230    0.65040    0.74380    1.000
    H199     H        0.46950    0.64950    0.73330    1.000
    H200     H        0.56440    0.64080    0.72950    1.000
    H201     H        0.53450    0.67740    0.74990    1.000
    C168     C        0.31290    0.73670    0.76420    1.000
    C169     C        0.36740    0.69700    0.80130    1.000
    C170     C        0.34130    0.80200    0.82510    1.000
    C171     C        0.54780    0.76360    0.80550    1.000
    H202     H        0.59340    0.77850    0.81420    1.000
    H203     H        0.55050    0.76390    0.78250    1.000
    H204     H        0.55070    0.73650    0.81300    1.000
    C172     C        0.28080    0.76960    0.74360    1.000
    H205     H        0.25240    0.75860    0.72540    1.000
    H206     H        0.32610    0.78580    0.73630    1.000
    H207     H        0.24310    0.78580    0.75590    1.000
    C173     C        0.54890    0.59230    0.81890    1.000
    C174     C        0.41100    0.68000    0.83030    1.000
    H208     H        0.40850    0.65140    0.82960    1.000
    H209     H        0.38440    0.68940    0.84950    1.000
    H210     H        0.46780    0.68840    0.83030    1.000
    C175     C        0.38800    0.77150    0.81060    1.000
    C176     C        0.58170    0.57470    0.84890    1.000
    H211     H        0.53970    0.55860    0.85880    1.000
    H212     H        0.59810    0.59560    0.86330    1.000
    H213     H        0.62880    0.55830    0.84390    1.000
    C177     C        0.35750    0.73640    0.79300    1.000
    C178     C        0.52000    0.62430    0.77360    1.000
    C179     C        0.24940    0.80390    0.82520    1.000
    H214     H        0.23170    0.82730    0.83660    1.000
    H215     H        0.22760    0.78050    0.83560    1.000
    H216     H        0.22950    0.80500    0.80350    1.000
    C180     C        0.46880    0.78180    0.81630    1.000
    N67      N        0.33070    0.67360    0.77900    1.000
    N68      N        0.29810    0.69840    0.75710    1.000
    N69      N        0.47020    0.58570    0.80950    1.000
    N70      N        0.39030    0.82850    0.83940    1.000
    N71      N        0.46810    0.81570    0.83350    1.000
    N72      N        0.45070    0.60500    0.78190    1.000
    O122     O        0.19670    0.61600    0.76130    1.000
    O123     O        0.18040    0.65120    0.64624    1.000
    O124     O        0.20690    0.66630    0.70820    1.000
    O125     O        0.21910    0.72490    0.66220    1.000
    O126     O        0.31720    0.59020    0.65320    1.000
    O127     O        0.33950    0.66500    0.65721    1.000
    O128     O        0.05360    0.71500    0.65227    1.000
    O129     O        0.18200    0.59930    0.79860    1.000
    O130     O        0.19390    0.59100    0.69787    1.000
    O131     O        0.34340    0.62240    0.71730    1.000
    Co12     Co       0.32734    0.61206    0.76866    1.000
    Mo34     Mo       0.28053    0.62745    0.68664    1.000
    Mo35     Mo       0.27980    0.70221    0.62761    1.000
    Mo36     Mo       0.13049    0.70200    0.68467    1.000
    O132     O        0.11200    0.61050    0.81930    1.000
    C181     C        0.66630    0.63300    0.79590    1.000
    C182     C        0.72770    0.59960    0.74380    1.000
    H217     H        0.78050    0.60050    0.73330    1.000
    H218     H        0.68560    0.60920    0.72950    1.000
    H219     H        0.71550    0.57260    0.74990    1.000
    C183     C        0.93710    0.51330    0.76420    1.000
    C184     C        0.88260    0.55300    0.80130    1.000
    C185     C        0.90870    0.44800    0.82510    1.000
    C186     C        0.70220    0.48640    0.80550    1.000
    H220     H        0.65660    0.47150    0.81420    1.000
    H221     H        0.69950    0.48610    0.78250    1.000
    H222     H        0.69930    0.51350    0.81300    1.000
    C187     C        0.96920    0.48040    0.74360    1.000
    H223     H        0.99760    0.49140    0.72540    1.000
    H224     H        0.92390    0.46420    0.73630    1.000
    H225     H        0.00690    0.46420    0.75590    1.000
    C188     C        0.70110    0.65770    0.81890    1.000
    C189     C        0.83900    0.57000    0.83030    1.000
    H226     H        0.84150    0.59860    0.82960    1.000
    H227     H        0.86560    0.56060    0.84950    1.000
    H228     H        0.78220    0.56160    0.83030    1.000
    C190     C        0.86200    0.47850    0.81060    1.000
    C191     C        0.66830    0.67530    0.84890    1.000
    H229     H        0.71030    0.69140    0.85880    1.000
    H230     H        0.65190    0.65440    0.86330    1.000
    H231     H        0.62120    0.69170    0.84390    1.000
    C192     C        0.89250    0.51360    0.79300    1.000
    C193     C        0.73000    0.62570    0.77360    1.000
    C194     C        0.00060    0.44610    0.82520    1.000
    H232     H        0.01830    0.42270    0.83660    1.000
    H233     H        0.02240    0.46950    0.83560    1.000
    H234     H        0.02050    0.44500    0.80350    1.000
    C195     C        0.78120    0.46820    0.81630    1.000
    N73      N        0.91930    0.57640    0.77900    1.000
    N74      N        0.95190    0.55160    0.75710    1.000
    N75      N        0.77980    0.66430    0.80950    1.000
    N76      N        0.85970    0.42150    0.83940    1.000
    N77      N        0.78190    0.43430    0.83350    1.000
    N78      N        0.79930    0.64500    0.78190    1.000
    O133     O        0.05330    0.63400    0.76130    1.000
    O134     O        0.06960    0.59880    0.64624    1.000
    O135     O        0.04310    0.58370    0.70820    1.000
    O136     O        0.03090    0.52510    0.66220    1.000
    O137     O        0.93280    0.65980    0.65320    1.000
    O138     O        0.91050    0.58500    0.65721    1.000
    O139     O        0.19640    0.53500    0.65227    1.000
    O140     O        0.06800    0.65070    0.79860    1.000
    O141     O        0.05610    0.65900    0.69787    1.000
    O142     O        0.90660    0.62760    0.71730    1.000
    Co13     Co       0.92266    0.63794    0.76866    1.000
    Mo37     Mo       0.96947    0.62255    0.68664    1.000
    Mo38     Mo       0.97020    0.54779    0.62761    1.000
    Mo39     Mo       0.11951    0.54800    0.68467    1.000
    O143     O        0.13800    0.63950    0.81930    1.000
    C196     C        0.66630    0.13300    0.29590    1.000
    C197     C        0.72770    0.09960    0.24380    1.000
    H235     H        0.78050    0.10050    0.23330    1.000
    H236     H        0.68560    0.10920    0.22950    1.000
    H237     H        0.71550    0.07260    0.24990    1.000
    C198     C        0.93710    0.01330    0.26420    1.000
    C199     C        0.88260    0.05300    0.30130    1.000
    C200     C        0.90870    0.94800    0.32510    1.000
    C201     C        0.70220    0.98640    0.30550    1.000
    H238     H        0.65660    0.97150    0.31420    1.000
    H239     H        0.69950    0.98610    0.28250    1.000
    H240     H        0.69930    0.01350    0.31300    1.000
    C202     C        0.96920    0.98040    0.24360    1.000
    H241     H        0.99760    0.99140    0.22540    1.000
    H242     H        0.92390    0.96420    0.23630    1.000
    H243     H        0.00690    0.96420    0.25590    1.000
    C203     C        0.70110    0.15770    0.31890    1.000
    C204     C        0.83900    0.07000    0.33030    1.000
    H244     H        0.84150    0.09860    0.32960    1.000
    H245     H        0.86560    0.06060    0.34950    1.000
    H246     H        0.78220    0.06160    0.33030    1.000
    C205     C        0.86200    0.97850    0.31060    1.000
    C206     C        0.66830    0.17530    0.34890    1.000
    H247     H        0.71030    0.19140    0.35880    1.000
    H248     H        0.65190    0.15440    0.36330    1.000
    H249     H        0.62120    0.19170    0.34390    1.000
    C207     C        0.89250    0.01360    0.29300    1.000
    C208     C        0.73000    0.12570    0.27360    1.000
    C209     C        0.00060    0.94610    0.32520    1.000
    H250     H        0.01830    0.92270    0.33660    1.000
    H251     H        0.02240    0.96950    0.33560    1.000
    H252     H        0.02050    0.94500    0.30350    1.000
    C210     C        0.78120    0.96820    0.31630    1.000
    N79      N        0.91930    0.07640    0.27900    1.000
    N80      N        0.95190    0.05160    0.25710    1.000
    N81      N        0.77980    0.16430    0.30950    1.000
    N82      N        0.85970    0.92150    0.33940    1.000
    N83      N        0.78190    0.93430    0.33350    1.000
    N84      N        0.79930    0.14500    0.28190    1.000
    O144     O        0.05330    0.13400    0.26130    1.000
    O145     O        0.06960    0.09880    0.14624    1.000
    O146     O        0.04310    0.08370    0.20820    1.000
    O147     O        0.03090    0.02510    0.16220    1.000
    O148     O        0.93280    0.15980    0.15320    1.000
    O149     O        0.91050    0.08500    0.15721    1.000
    O150     O        0.19640    0.03500    0.15227    1.000
    O151     O        0.06800    0.15070    0.29860    1.000
    O152     O        0.05610    0.15900    0.19787    1.000
    O153     O        0.90660    0.12760    0.21730    1.000
    Co14     Co       0.92266    0.13794    0.26866    1.000
    Mo40     Mo       0.96947    0.12255    0.18664    1.000
    Mo41     Mo       0.97020    0.04779    0.12761    1.000
    Mo42     Mo       0.11951    0.04800    0.18467    1.000
    O154     O        0.13800    0.13950    0.31930    1.000
    C211     C        0.16630    0.63300    0.29590    1.000
    C212     C        0.22770    0.59960    0.24380    1.000
    H253     H        0.28050    0.60050    0.23330    1.000
    H254     H        0.18560    0.60920    0.22950    1.000
    H255     H        0.21550    0.57260    0.24990    1.000
    C213     C        0.43710    0.51330    0.26420    1.000
    C214     C        0.38260    0.55300    0.30130    1.000
    C215     C        0.40870    0.44800    0.32510    1.000
    C216     C        0.20220    0.48640    0.30550    1.000
    H256     H        0.15660    0.47150    0.31420    1.000
    H257     H        0.19950    0.48610    0.28250    1.000
    H258     H        0.19930    0.51350    0.31300    1.000
    C217     C        0.46920    0.48040    0.24360    1.000
    H259     H        0.49760    0.49140    0.22540    1.000
    H260     H        0.42390    0.46420    0.23630    1.000
    H261     H        0.50690    0.46420    0.25590    1.000
    C218     C        0.20110    0.65770    0.31890    1.000
    C219     C        0.33900    0.57000    0.33030    1.000
    H262     H        0.34150    0.59860    0.32960    1.000
    H263     H        0.36560    0.56060    0.34950    1.000
    H264     H        0.28220    0.56160    0.33030    1.000
    C220     C        0.36200    0.47850    0.31060    1.000
    C221     C        0.16830    0.67530    0.34890    1.000
    H265     H        0.21030    0.69140    0.35880    1.000
    H266     H        0.15190    0.65440    0.36330    1.000
    H267     H        0.12120    0.69170    0.34390    1.000
    C222     C        0.39250    0.51360    0.29300    1.000
    C223     C        0.23000    0.62570    0.27360    1.000
    C224     C        0.50060    0.44610    0.32520    1.000
    H268     H        0.51830    0.42270    0.33660    1.000
    H269     H        0.52240    0.46950    0.33560    1.000
    H270     H        0.52050    0.44500    0.30350    1.000
    C225     C        0.28120    0.46820    0.31630    1.000
    N85      N        0.41930    0.57640    0.27900    1.000
    N86      N        0.45190    0.55160    0.25710    1.000
    N87      N        0.27980    0.66430    0.30950    1.000
    N88      N        0.35970    0.42150    0.33940    1.000
    N89      N        0.28190    0.43430    0.33350    1.000
    N90      N        0.29930    0.64500    0.28190    1.000
    O155     O        0.55330    0.63400    0.26130    1.000
    O156     O        0.56960    0.59880    0.14624    1.000
    O157     O        0.54310    0.58370    0.20820    1.000
    O158     O        0.53090    0.52510    0.16220    1.000
    O159     O        0.43280    0.65980    0.15320    1.000
    O160     O        0.41050    0.58500    0.15721    1.000
    O161     O        0.69640    0.53500    0.15227    1.000
    O162     O        0.56800    0.65070    0.29860    1.000
    O163     O        0.55610    0.65900    0.19787    1.000
    O164     O        0.40660    0.62760    0.21730    1.000
    Co15     Co       0.42266    0.63794    0.26866    1.000
    Mo43     Mo       0.46947    0.62255    0.18664    1.000
    Mo44     Mo       0.47020    0.54779    0.12761    1.000
    Mo45     Mo       0.61951    0.54800    0.18467    1.000
    O165     O        0.63800    0.63950    0.31930    1.000
    C226     C        0.16630    0.13300    0.79590    1.000
    C227     C        0.22770    0.09960    0.74380    1.000
    H271     H        0.28050    0.10050    0.73330    1.000
    H272     H        0.18560    0.10920    0.72950    1.000
    H273     H        0.21550    0.07260    0.74990    1.000
    C228     C        0.43710    0.01330    0.76420    1.000
    C229     C        0.38260    0.05300    0.80130    1.000
    C230     C        0.40870    0.94800    0.82510    1.000
    C231     C        0.20220    0.98640    0.80550    1.000
    H274     H        0.15660    0.97150    0.81420    1.000
    H275     H        0.19950    0.98610    0.78250    1.000
    H276     H        0.19930    0.01350    0.81300    1.000
    C232     C        0.46920    0.98040    0.74360    1.000
    H277     H        0.49760    0.99140    0.72540    1.000
    H278     H        0.42390    0.96420    0.73630    1.000
    H279     H        0.50690    0.96420    0.75590    1.000
    C233     C        0.20110    0.15770    0.81890    1.000
    C234     C        0.33900    0.07000    0.83030    1.000
    H280     H        0.34150    0.09860    0.82960    1.000
    H281     H        0.36560    0.06060    0.84950    1.000
    H282     H        0.28220    0.06160    0.83030    1.000
    C235     C        0.36200    0.97850    0.81060    1.000
    C236     C        0.16830    0.17530    0.84890    1.000
    H283     H        0.21030    0.19140    0.85880    1.000
    H284     H        0.15190    0.15440    0.86330    1.000
    H285     H        0.12120    0.19170    0.84390    1.000
    C237     C        0.39250    0.01360    0.79300    1.000
    C238     C        0.23000    0.12570    0.77360    1.000
    C239     C        0.50060    0.94610    0.82520    1.000
    H286     H        0.51830    0.92270    0.83660    1.000
    H287     H        0.52240    0.96950    0.83560    1.000
    H288     H        0.52050    0.94500    0.80350    1.000
    C240     C        0.28120    0.96820    0.81630    1.000
    N91      N        0.41930    0.07640    0.77900    1.000
    N92      N        0.45190    0.05160    0.75710    1.000
    N93      N        0.27980    0.16430    0.80950    1.000
    N94      N        0.35970    0.92150    0.83940    1.000
    N95      N        0.28190    0.93430    0.83350    1.000
    N96      N        0.29930    0.14500    0.78190    1.000
    O166     O        0.55330    0.13400    0.76130    1.000
    O167     O        0.56960    0.09880    0.64624    1.000
    O168     O        0.54310    0.08370    0.70820    1.000
    O169     O        0.53090    0.02510    0.66220    1.000
    O170     O        0.43280    0.15980    0.65320    1.000
    O171     O        0.41050    0.08500    0.65721    1.000
    O172     O        0.69640    0.03500    0.65227    1.000
    O173     O        0.56800    0.15070    0.79860    1.000
    O174     O        0.55610    0.15900    0.69787    1.000
    O175     O        0.40660    0.12760    0.71730    1.000
    Co16     Co       0.42266    0.13794    0.76866    1.000
    Mo46     Mo       0.46947    0.12255    0.68664    1.000
    Mo47     Mo       0.47020    0.04779    0.62761    1.000
    Mo48     Mo       0.61951    0.04800    0.68467    1.000
    O176     O        0.63800    0.13950    0.81930    1.000
    V1       V        0.87529    0.12500    0.12500    1.000
    V2       V        0.37529    0.12500    0.62500    1.000
    V3       V        0.87471    0.62500    0.12500    1.000
    V4       V        0.37471    0.62500    0.62500    1.000
    V5       V        0.87471    0.12500    0.62500    1.000
    V6       V        0.37471    0.12500    0.12500    1.000
    V7       V        0.87529    0.62500    0.62500    1.000
    V8       V        0.37529    0.62500    0.12500    1.000
    P1       P        0.12500    0.12500    0.12500    1.000
    P2       P        0.62500    0.62500    0.12500    1.000
    P3       P        0.62500    0.12500    0.62500    1.000
    P4       P        0.12500    0.62500    0.62500    1.000
    V9       V        0.12500    0.12500    0.02629    1.000
    S1       S        0.12500    0.12500    0.96110    1.000
    V10      V        0.12500    0.62500    0.52629    1.000
    S2       S        0.12500    0.62500    0.46110    1.000
    V11      V        0.62500    0.62500    0.02629    1.000
    S3       S        0.62500    0.62500    0.96110    1.000
    V12      V        0.62500    0.12500    0.52629    1.000
    S4       S        0.62500    0.12500    0.46110    1.000
    V13      V        0.62500    0.12500    0.72371    1.000
    S5       S        0.62500    0.12500    0.78890    1.000
    V14      V        0.62500    0.62500    0.22371    1.000
    S6       S        0.62500    0.62500    0.28890    1.000
    V15      V        0.12500    0.62500    0.72371    1.000
    S7       S        0.12500    0.62500    0.78890    1.000
    V16      V        0.12500    0.12500    0.22371    1.000
    S8       S        0.12500    0.12500    0.28890    1.000
    Co17     Co       0.37500    0.87500    0.87500    1.000
    Co18     Co       0.87500    0.37500    0.87500    1.000
    Co19     Co       0.87500    0.87500    0.37500    1.000
    Co20     Co       0.37500    0.37500    0.37500    1.000
    C241     C        0.33370    0.88300    0.04590    1.000
    C242     C        0.27230    0.84960    0.99380    1.000
    H289     H        0.21950    0.85050    0.98330    1.000
    H290     H        0.31440    0.85920    0.97950    1.000
    H291     H        0.28450    0.82260    0.99990    1.000
    C243     C        0.06290    0.76330    0.01420    1.000
    C244     C        0.11740    0.80300    0.05130    1.000
    C245     C        0.09130    0.69800    0.07510    1.000
    C246     C        0.29780    0.73640    0.05550    1.000
    H292     H        0.34340    0.72150    0.06420    1.000
    H293     H        0.30050    0.73610    0.03250    1.000
    H294     H        0.30070    0.76350    0.06300    1.000
    C247     C        0.03080    0.73040    0.99360    1.000
    H295     H        0.00240    0.74140    0.97540    1.000
    H296     H        0.07610    0.71420    0.98630    1.000
    H297     H        0.99310    0.71420    0.00590    1.000
    C248     C        0.29890    0.90770    0.06890    1.000
    C249     C        0.16100    0.82000    0.08030    1.000
    H298     H        0.15850    0.84860    0.07960    1.000
    H299     H        0.13440    0.81060    0.09950    1.000
    H300     H        0.21780    0.81160    0.08030    1.000
    C250     C        0.13800    0.72850    0.06060    1.000
    C251     C        0.33170    0.92530    0.09890    1.000
    H301     H        0.28970    0.94140    0.10880    1.000
    H302     H        0.34810    0.90440    0.11330    1.000
    H303     H        0.37880    0.94170    0.09390    1.000
    C252     C        0.10750    0.76360    0.04300    1.000
    C253     C        0.27000    0.87570    0.02360    1.000
    C254     C        0.99940    0.69610    0.07520    1.000
    H304     H        0.98170    0.67270    0.08660    1.000
    H305     H        0.97760    0.71950    0.08560    1.000
    H306     H        0.97950    0.69500    0.05350    1.000
    C255     C        0.21880    0.71820    0.06630    1.000
    N97      N        0.08070    0.82640    0.02900    1.000
    N98      N        0.04810    0.80160    0.00710    1.000
    N99      N        0.22020    0.91430    0.05950    1.000
    N100     N        0.14030    0.67150    0.08940    1.000
    N101     N        0.21810    0.68430    0.08350    1.000
    N102     N        0.20070    0.89500    0.03190    1.000
    O177     O        0.94670    0.88400    0.01130    1.000
    O178     O        0.93040    0.84880    0.89624    1.000
    O179     O        0.95690    0.83370    0.95820    1.000
    O180     O        0.96910    0.77510    0.91220    1.000
    O181     O        0.06720    0.90980    0.90320    1.000
    O182     O        0.08950    0.83500    0.90721    1.000
    O183     O        0.80360    0.78500    0.90227    1.000
    O184     O        0.93200    0.90070    0.04860    1.000
    O185     O        0.94390    0.90900    0.94787    1.000
    O186     O        0.09340    0.87760    0.96730    1.000
    Co21     Co       0.07734    0.88794    0.01866    1.000
    Mo49     Mo       0.03053    0.87255    0.93664    1.000
    Mo50     Mo       0.02980    0.79779    0.87761    1.000
    Mo51     Mo       0.88049    0.79800    0.93467    1.000
    O187     O        0.86200    0.88950    0.06930    1.000
    C256     C        0.33370    0.38300    0.54590    1.000
    C257     C        0.27230    0.34960    0.49380    1.000
    H307     H        0.21950    0.35050    0.48330    1.000
    H308     H        0.31440    0.35920    0.47950    1.000
    H309     H        0.28450    0.32260    0.49990    1.000
    C258     C        0.06290    0.26330    0.51420    1.000
    C259     C        0.11740    0.30300    0.55130    1.000
    C260     C        0.09130    0.19800    0.57510    1.000
    C261     C        0.29780    0.23640    0.55550    1.000
    H310     H        0.34340    0.22150    0.56420    1.000
    H311     H        0.30050    0.23610    0.53250    1.000
    H312     H        0.30070    0.26350    0.56300    1.000
    C262     C        0.03080    0.23040    0.49360    1.000
    H313     H        0.00240    0.24140    0.47540    1.000
    H314     H        0.07610    0.21420    0.48630    1.000
    H315     H        0.99310    0.21420    0.50590    1.000
    C263     C        0.29890    0.40770    0.56890    1.000
    C264     C        0.16100    0.32000    0.58030    1.000
    H316     H        0.15850    0.34860    0.57960    1.000
    H317     H        0.13440    0.31060    0.59950    1.000
    H318     H        0.21780    0.31160    0.58030    1.000
    C265     C        0.13800    0.22850    0.56060    1.000
    C266     C        0.33170    0.42530    0.59890    1.000
    H319     H        0.28970    0.44140    0.60880    1.000
    H320     H        0.34810    0.40440    0.61330    1.000
    H321     H        0.37880    0.44170    0.59390    1.000
    C267     C        0.10750    0.26360    0.54300    1.000
    C268     C        0.27000    0.37570    0.52360    1.000
    C269     C        0.99940    0.19610    0.57520    1.000
    H322     H        0.98170    0.17270    0.58660    1.000
    H323     H        0.97760    0.21950    0.58560    1.000
    H324     H        0.97950    0.19500    0.55350    1.000
    C270     C        0.21880    0.21820    0.56630    1.000
    N103     N        0.08070    0.32640    0.52900    1.000
    N104     N        0.04810    0.30160    0.50710    1.000
    N105     N        0.22020    0.41430    0.55950    1.000
    N106     N        0.14030    0.17150    0.58940    1.000
    N107     N        0.21810    0.18430    0.58350    1.000
    N108     N        0.20070    0.39500    0.53190    1.000
    O188     O        0.94670    0.38400    0.51130    1.000
    O189     O        0.93040    0.34880    0.39624    1.000
    O190     O        0.95690    0.33370    0.45820    1.000
    O191     O        0.96910    0.27510    0.41220    1.000
    O192     O        0.06720    0.40980    0.40320    1.000
    O193     O        0.08950    0.33500    0.40721    1.000
    O194     O        0.80360    0.28500    0.40227    1.000
    O195     O        0.93200    0.40070    0.54860    1.000
    O196     O        0.94390    0.40900    0.44787    1.000
    O197     O        0.09340    0.37760    0.46730    1.000
    Co22     Co       0.07734    0.38794    0.51866    1.000
    Mo52     Mo       0.03053    0.37255    0.43664    1.000
    Mo53     Mo       0.02980    0.29779    0.37761    1.000
    Mo54     Mo       0.88049    0.29800    0.43467    1.000
    O198     O        0.86200    0.38950    0.56930    1.000
    C271     C        0.83370    0.88300    0.54590    1.000
    C272     C        0.77230    0.84960    0.49380    1.000
    H325     H        0.71950    0.85050    0.48330    1.000
    H326     H        0.81440    0.85920    0.47950    1.000
    H327     H        0.78450    0.82260    0.49990    1.000
    C273     C        0.56290    0.76330    0.51420    1.000
    C274     C        0.61740    0.80300    0.55130    1.000
    C275     C        0.59130    0.69800    0.57510    1.000
    C276     C        0.79780    0.73640    0.55550    1.000
    H328     H        0.84340    0.72150    0.56420    1.000
    H329     H        0.80050    0.73610    0.53250    1.000
    H330     H        0.80070    0.76350    0.56300    1.000
    C277     C        0.53080    0.73040    0.49360    1.000
    H331     H        0.50240    0.74140    0.47540    1.000
    H332     H        0.57610    0.71420    0.48630    1.000
    H333     H        0.49310    0.71420    0.50590    1.000
    C278     C        0.79890    0.90770    0.56890    1.000
    C279     C        0.66100    0.82000    0.58030    1.000
    H334     H        0.65850    0.84860    0.57960    1.000
    H335     H        0.63440    0.81060    0.59950    1.000
    H336     H        0.71780    0.81160    0.58030    1.000
    C280     C        0.63800    0.72850    0.56060    1.000
    C281     C        0.83170    0.92530    0.59890    1.000
    H337     H        0.78970    0.94140    0.60880    1.000
    H338     H        0.84810    0.90440    0.61330    1.000
    H339     H        0.87880    0.94170    0.59390    1.000
    C282     C        0.60750    0.76360    0.54300    1.000
    C283     C        0.77000    0.87570    0.52360    1.000
    C284     C        0.49940    0.69610    0.57520    1.000
    H340     H        0.48170    0.67270    0.58660    1.000
    H341     H        0.47760    0.71950    0.58560    1.000
    H342     H        0.47950    0.69500    0.55350    1.000
    C285     C        0.71880    0.71820    0.56630    1.000
    N109     N        0.58070    0.82640    0.52900    1.000
    N110     N        0.54810    0.80160    0.50710    1.000
    N111     N        0.72020    0.91430    0.55950    1.000
    N112     N        0.64030    0.67150    0.58940    1.000
    N113     N        0.71810    0.68430    0.58350    1.000
    N114     N        0.70070    0.89500    0.53190    1.000
    O199     O        0.44670    0.88400    0.51130    1.000
    O200     O        0.43040    0.84880    0.39624    1.000
    O201     O        0.45690    0.83370    0.45820    1.000
    O202     O        0.46910    0.77510    0.41220    1.000
    O203     O        0.56720    0.90980    0.40320    1.000
    O204     O        0.58950    0.83500    0.40721    1.000
    O205     O        0.30360    0.78500    0.40227    1.000
    O206     O        0.43200    0.90070    0.54860    1.000
    O207     O        0.44390    0.90900    0.44787    1.000
    O208     O        0.59340    0.87760    0.46730    1.000
    Co23     Co       0.57734    0.88794    0.51866    1.000
    Mo55     Mo       0.53053    0.87255    0.43664    1.000
    Mo56     Mo       0.52980    0.79779    0.37761    1.000
    Mo57     Mo       0.38049    0.79800    0.43467    1.000
    O209     O        0.36200    0.88950    0.56930    1.000
    C286     C        0.83370    0.38300    0.04590    1.000
    C287     C        0.77230    0.34960    0.99380    1.000
    H343     H        0.71950    0.35050    0.98330    1.000
    H344     H        0.81440    0.35920    0.97950    1.000
    H345     H        0.78450    0.32260    0.99990    1.000
    C288     C        0.56290    0.26330    0.01420    1.000
    C289     C        0.61740    0.30300    0.05130    1.000
    C290     C        0.59130    0.19800    0.07510    1.000
    C291     C        0.79780    0.23640    0.05550    1.000
    H346     H        0.84340    0.22150    0.06420    1.000
    H347     H        0.80050    0.23610    0.03250    1.000
    H348     H        0.80070    0.26350    0.06300    1.000
    C292     C        0.53080    0.23040    0.99360    1.000
    H349     H        0.50240    0.24140    0.97540    1.000
    H350     H        0.57610    0.21420    0.98630    1.000
    H351     H        0.49310    0.21420    0.00590    1.000
    C293     C        0.79890    0.40770    0.06890    1.000
    C294     C        0.66100    0.32000    0.08030    1.000
    H352     H        0.65850    0.34860    0.07960    1.000
    H353     H        0.63440    0.31060    0.09950    1.000
    H354     H        0.71780    0.31160    0.08030    1.000
    C295     C        0.63800    0.22850    0.06060    1.000
    C296     C        0.83170    0.42530    0.09890    1.000
    H355     H        0.78970    0.44140    0.10880    1.000
    H356     H        0.84810    0.40440    0.11330    1.000
    H357     H        0.87880    0.44170    0.09390    1.000
    C297     C        0.60750    0.26360    0.04300    1.000
    C298     C        0.77000    0.37570    0.02360    1.000
    C299     C        0.49940    0.19610    0.07520    1.000
    H358     H        0.48170    0.17270    0.08660    1.000
    H359     H        0.47760    0.21950    0.08560    1.000
    H360     H        0.47950    0.19500    0.05350    1.000
    C300     C        0.71880    0.21820    0.06630    1.000
    N115     N        0.58070    0.32640    0.02900    1.000
    N116     N        0.54810    0.30160    0.00710    1.000
    N117     N        0.72020    0.41430    0.05950    1.000
    N118     N        0.64030    0.17150    0.08940    1.000
    N119     N        0.71810    0.18430    0.08350    1.000
    N120     N        0.70070    0.39500    0.03190    1.000
    O210     O        0.44670    0.38400    0.01130    1.000
    O211     O        0.43040    0.34880    0.89624    1.000
    O212     O        0.45690    0.33370    0.95820    1.000
    O213     O        0.46910    0.27510    0.91220    1.000
    O214     O        0.56720    0.40980    0.90320    1.000
    O215     O        0.58950    0.33500    0.90721    1.000
    O216     O        0.30360    0.28500    0.90227    1.000
    O217     O        0.43200    0.40070    0.04860    1.000
    O218     O        0.44390    0.40900    0.94787    1.000
    O219     O        0.59340    0.37760    0.96730    1.000
    Co24     Co       0.57734    0.38794    0.01866    1.000
    Mo58     Mo       0.53053    0.37255    0.93664    1.000
    Mo59     Mo       0.52980    0.29779    0.87761    1.000
    Mo60     Mo       0.38049    0.29800    0.93467    1.000
    O220     O        0.36200    0.38950    0.06930    1.000
    C301     C        0.91630    0.36700    0.04590    1.000
    C302     C        0.97770    0.40040    0.99380    1.000
    H361     H        0.03050    0.39950    0.98330    1.000
    H362     H        0.93560    0.39080    0.97950    1.000
    H363     H        0.96550    0.42740    0.99990    1.000
    C303     C        0.18710    0.48670    0.01420    1.000
    C304     C        0.13260    0.44700    0.05130    1.000
    C305     C        0.15870    0.55200    0.07510    1.000
    C306     C        0.95220    0.51360    0.05550    1.000
    H364     H        0.90660    0.52850    0.06420    1.000
    H365     H        0.94950    0.51390    0.03250    1.000
    H366     H        0.94930    0.48650    0.06300    1.000
    C307     C        0.21920    0.51960    0.99360    1.000
    H367     H        0.24760    0.50860    0.97540    1.000
    H368     H        0.17390    0.53580    0.98630    1.000
    H369     H        0.25690    0.53580    0.00590    1.000
    C308     C        0.95110    0.34230    0.06890    1.000
    C309     C        0.08900    0.43000    0.08030    1.000
    H370     H        0.09150    0.40140    0.07960    1.000
    H371     H        0.11560    0.43940    0.09950    1.000
    H372     H        0.03220    0.43840    0.08030    1.000
    C310     C        0.11200    0.52150    0.06060    1.000
    C311     C        0.91830    0.32470    0.09890    1.000
    H373     H        0.96030    0.30860    0.10880    1.000
    H374     H        0.90190    0.34560    0.11330    1.000
    H375     H        0.87120    0.30830    0.09390    1.000
    C312     C        0.14250    0.48640    0.04300    1.000
    C313     C        0.98000    0.37430    0.02360    1.000
    C314     C        0.25060    0.55390    0.07520    1.000
    H376     H        0.26830    0.57730    0.08660    1.000
    H377     H        0.27240    0.53050    0.08560    1.000
    H378     H        0.27050    0.55500    0.05350    1.000
    C315     C        0.03120    0.53180    0.06630    1.000
    N121     N        0.16930    0.42360    0.02900    1.000
    N122     N        0.20190    0.44840    0.00710    1.000
    N123     N        0.02980    0.33570    0.05950    1.000
    N124     N        0.10970    0.57850    0.08940    1.000
    N125     N        0.03190    0.56570    0.08350    1.000
    N126     N        0.04930    0.35500    0.03190    1.000
    O221     O        0.30330    0.36600    0.01130    1.000
    O222     O        0.31960    0.40120    0.89624    1.000
    O223     O        0.29310    0.41630    0.95820    1.000
    O224     O        0.28090    0.47490    0.91220    1.000
    O225     O        0.18280    0.34020    0.90320    1.000
    O226     O        0.16050    0.41500    0.90721    1.000
    O227     O        0.44640    0.46500    0.90227    1.000
    O228     O        0.31800    0.34930    0.04860    1.000
    O229     O        0.30610    0.34100    0.94787    1.000
    O230     O        0.15660    0.37240    0.96730    1.000
    Co25     Co       0.17266    0.36206    0.01866    1.000
    Mo61     Mo       0.21947    0.37745    0.93664    1.000
    Mo62     Mo       0.22020    0.45221    0.87761    1.000
    Mo63     Mo       0.36951    0.45200    0.93467    1.000
    O231     O        0.38800    0.36050    0.06930    1.000
    C316     C        0.91630    0.86700    0.54590    1.000
    C317     C        0.97770    0.90040    0.49380    1.000
    H379     H        0.03050    0.89950    0.48330    1.000
    H380     H        0.93560    0.89080    0.47950    1.000
    H381     H        0.96550    0.92740    0.49990    1.000
    C318     C        0.18710    0.98670    0.51420    1.000
    C319     C        0.13260    0.94700    0.55130    1.000
    C320     C        0.15870    0.05200    0.57510    1.000
    C321     C        0.95220    0.01360    0.55550    1.000
    H382     H        0.90660    0.02850    0.56420    1.000
    H383     H        0.94950    0.01390    0.53250    1.000
    H384     H        0.94930    0.98650    0.56300    1.000
    C322     C        0.21920    0.01960    0.49360    1.000
    H385     H        0.24760    0.00860    0.47540    1.000
    H386     H        0.17390    0.03580    0.48630    1.000
    H387     H        0.25690    0.03580    0.50590    1.000
    C323     C        0.95110    0.84230    0.56890    1.000
    C324     C        0.08900    0.93000    0.58030    1.000
    H388     H        0.09150    0.90140    0.57960    1.000
    H389     H        0.11560    0.93940    0.59950    1.000
    H390     H        0.03220    0.93840    0.58030    1.000
    C325     C        0.11200    0.02150    0.56060    1.000
    C326     C        0.91830    0.82470    0.59890    1.000
    H391     H        0.96030    0.80860    0.60880    1.000
    H392     H        0.90190    0.84560    0.61330    1.000
    H393     H        0.87120    0.80830    0.59390    1.000
    C327     C        0.14250    0.98640    0.54300    1.000
    C328     C        0.98000    0.87430    0.52360    1.000
    C329     C        0.25060    0.05390    0.57520    1.000
    H394     H        0.26830    0.07730    0.58660    1.000
    H395     H        0.27240    0.03050    0.58560    1.000
    H396     H        0.27050    0.05500    0.55350    1.000
    C330     C        0.03120    0.03180    0.56630    1.000
    N127     N        0.16930    0.92360    0.52900    1.000
    N128     N        0.20190    0.94840    0.50710    1.000
    N129     N        0.02980    0.83570    0.55950    1.000
    N130     N        0.10970    0.07850    0.58940    1.000
    N131     N        0.03190    0.06570    0.58350    1.000
    N132     N        0.04930    0.85500    0.53190    1.000
    O232     O        0.30330    0.86600    0.51130    1.000
    O233     O        0.31960    0.90120    0.39624    1.000
    O234     O        0.29310    0.91630    0.45820    1.000
    O235     O        0.28090    0.97490    0.41220    1.000
    O236     O        0.18280    0.84020    0.40320    1.000
    O237     O        0.16050    0.91500    0.40721    1.000
    O238     O        0.44640    0.96500    0.40227    1.000
    O239     O        0.31800    0.84930    0.54860    1.000
    O240     O        0.30610    0.84100    0.44787    1.000
    O241     O        0.15660    0.87240    0.46730    1.000
    Co26     Co       0.17266    0.86206    0.51866    1.000
    Mo64     Mo       0.21947    0.87745    0.43664    1.000
    Mo65     Mo       0.22020    0.95221    0.37761    1.000
    Mo66     Mo       0.36951    0.95200    0.43467    1.000
    O242     O        0.38800    0.86050    0.56930    1.000
    C331     C        0.41630    0.36700    0.54590    1.000
    C332     C        0.47770    0.40040    0.49380    1.000
    H397     H        0.53050    0.39950    0.48330    1.000
    H398     H        0.43560    0.39080    0.47950    1.000
    H399     H        0.46550    0.42740    0.49990    1.000
    C333     C        0.68710    0.48670    0.51420    1.000
    C334     C        0.63260    0.44700    0.55130    1.000
    C335     C        0.65870    0.55200    0.57510    1.000
    C336     C        0.45220    0.51360    0.55550    1.000
    H400     H        0.40660    0.52850    0.56420    1.000
    H401     H        0.44950    0.51390    0.53250    1.000
    H402     H        0.44930    0.48650    0.56300    1.000
    C337     C        0.71920    0.51960    0.49360    1.000
    H403     H        0.74760    0.50860    0.47540    1.000
    H404     H        0.67390    0.53580    0.48630    1.000
    H405     H        0.75690    0.53580    0.50590    1.000
    C338     C        0.45110    0.34230    0.56890    1.000
    C339     C        0.58900    0.43000    0.58030    1.000
    H406     H        0.59150    0.40140    0.57960    1.000
    H407     H        0.61560    0.43940    0.59950    1.000
    H408     H        0.53220    0.43840    0.58030    1.000
    C340     C        0.61200    0.52150    0.56060    1.000
    C341     C        0.41830    0.32470    0.59890    1.000
    H409     H        0.46030    0.30860    0.60880    1.000
    H410     H        0.40190    0.34560    0.61330    1.000
    H411     H        0.37120    0.30830    0.59390    1.000
    C342     C        0.64250    0.48640    0.54300    1.000
    C343     C        0.48000    0.37430    0.52360    1.000
    C344     C        0.75060    0.55390    0.57520    1.000
    H412     H        0.76830    0.57730    0.58660    1.000
    H413     H        0.77240    0.53050    0.58560    1.000
    H414     H        0.77050    0.55500    0.55350    1.000
    C345     C        0.53120    0.53180    0.56630    1.000
    N133     N        0.66930    0.42360    0.52900    1.000
    N134     N        0.70190    0.44840    0.50710    1.000
    N135     N        0.52980    0.33570    0.55950    1.000
    N136     N        0.60970    0.57850    0.58940    1.000
    N137     N        0.53190    0.56570    0.58350    1.000
    N138     N        0.54930    0.35500    0.53190    1.000
    O243     O        0.80330    0.36600    0.51130    1.000
    O244     O        0.81960    0.40120    0.39624    1.000
    O245     O        0.79310    0.41630    0.45820    1.000
    O246     O        0.78090    0.47490    0.41220    1.000
    O247     O        0.68280    0.34020    0.40320    1.000
    O248     O        0.66050    0.41500    0.40721    1.000
    O249     O        0.94640    0.46500    0.40227    1.000
    O250     O        0.81800    0.34930    0.54860    1.000
    O251     O        0.80610    0.34100    0.44787    1.000
    O252     O        0.65660    0.37240    0.46730    1.000
    Co27     Co       0.67266    0.36206    0.51866    1.000
    Mo67     Mo       0.71947    0.37745    0.43664    1.000
    Mo68     Mo       0.72020    0.45221    0.37761    1.000
    Mo69     Mo       0.86951    0.45200    0.43467    1.000
    O253     O        0.88800    0.36050    0.56930    1.000
    C346     C        0.41630    0.86700    0.04590    1.000
    C347     C        0.47770    0.90040    0.99380    1.000
    H415     H        0.53050    0.89950    0.98330    1.000
    H416     H        0.43560    0.89080    0.97950    1.000
    H417     H        0.46550    0.92740    0.99990    1.000
    C348     C        0.68710    0.98670    0.01420    1.000
    C349     C        0.63260    0.94700    0.05130    1.000
    C350     C        0.65870    0.05200    0.07510    1.000
    C351     C        0.45220    0.01360    0.05550    1.000
    H418     H        0.40660    0.02850    0.06420    1.000
    H419     H        0.44950    0.01390    0.03250    1.000
    H420     H        0.44930    0.98650    0.06300    1.000
    C352     C        0.71920    0.01960    0.99360    1.000
    H421     H        0.74760    0.00860    0.97540    1.000
    H422     H        0.67390    0.03580    0.98630    1.000
    H423     H        0.75690    0.03580    0.00590    1.000
    C353     C        0.45110    0.84230    0.06890    1.000
    C354     C        0.58900    0.93000    0.08030    1.000
    H424     H        0.59150    0.90140    0.07960    1.000
    H425     H        0.61560    0.93940    0.09950    1.000
    H426     H        0.53220    0.93840    0.08030    1.000
    C355     C        0.61200    0.02150    0.06060    1.000
    C356     C        0.41830    0.82470    0.09890    1.000
    H427     H        0.46030    0.80860    0.10880    1.000
    H428     H        0.40190    0.84560    0.11330    1.000
    H429     H        0.37120    0.80830    0.09390    1.000
    C357     C        0.64250    0.98640    0.04300    1.000
    C358     C        0.48000    0.87430    0.02360    1.000
    C359     C        0.75060    0.05390    0.07520    1.000
    H430     H        0.76830    0.07730    0.08660    1.000
    H431     H        0.77240    0.03050    0.08560    1.000
    H432     H        0.77050    0.05500    0.05350    1.000
    C360     C        0.53120    0.03180    0.06630    1.000
    N139     N        0.66930    0.92360    0.02900    1.000
    N140     N        0.70190    0.94840    0.00710    1.000
    N141     N        0.52980    0.83570    0.05950    1.000
    N142     N        0.60970    0.07850    0.08940    1.000
    N143     N        0.53190    0.06570    0.08350    1.000
    N144     N        0.54930    0.85500    0.03190    1.000
    O254     O        0.80330    0.86600    0.01130    1.000
    O255     O        0.81960    0.90120    0.89624    1.000
    O256     O        0.79310    0.91630    0.95820    1.000
    O257     O        0.78090    0.97490    0.91220    1.000
    O258     O        0.68280    0.84020    0.90320    1.000
    O259     O        0.66050    0.91500    0.90721    1.000
    O260     O        0.94640    0.96500    0.90227    1.000
    O261     O        0.81800    0.84930    0.04860    1.000
    O262     O        0.80610    0.84100    0.94787    1.000
    O263     O        0.65660    0.87240    0.96730    1.000
    Co28     Co       0.67266    0.86206    0.01866    1.000
    Mo70     Mo       0.71947    0.87745    0.93664    1.000
    Mo71     Mo       0.72020    0.95221    0.87761    1.000
    Mo72     Mo       0.86951    0.95200    0.93467    1.000
    O264     O        0.88800    0.86050    0.06930    1.000
    C361     C        0.91630    0.88300    0.20410    1.000
    C362     C        0.97770    0.84960    0.25620    1.000
    H433     H        0.03050    0.85050    0.26670    1.000
    H434     H        0.93560    0.85920    0.27050    1.000
    H435     H        0.96550    0.82260    0.25010    1.000
    C363     C        0.18710    0.76330    0.23580    1.000
    C364     C        0.13260    0.80300    0.19870    1.000
    C365     C        0.15870    0.69800    0.17490    1.000
    C366     C        0.95220    0.73640    0.19450    1.000
    H436     H        0.90660    0.72150    0.18580    1.000
    H437     H        0.94950    0.73610    0.21750    1.000
    H438     H        0.94930    0.76350    0.18700    1.000
    C367     C        0.21920    0.73040    0.25640    1.000
    H439     H        0.24760    0.74140    0.27460    1.000
    H440     H        0.17390    0.71420    0.26370    1.000
    H441     H        0.25690    0.71420    0.24410    1.000
    C368     C        0.95110    0.90770    0.18110    1.000
    C369     C        0.08900    0.82000    0.16970    1.000
    H442     H        0.09150    0.84860    0.17040    1.000
    H443     H        0.11560    0.81060    0.15050    1.000
    H444     H        0.03220    0.81160    0.16970    1.000
    C370     C        0.11200    0.72850    0.18940    1.000
    C371     C        0.91830    0.92530    0.15110    1.000
    H445     H        0.96030    0.94140    0.14120    1.000
    H446     H        0.90190    0.90440    0.13670    1.000
    H447     H        0.87120    0.94170    0.15610    1.000
    C372     C        0.14250    0.76360    0.20700    1.000
    C373     C        0.98000    0.87570    0.22640    1.000
    C374     C        0.25060    0.69610    0.17480    1.000
    H448     H        0.26830    0.67270    0.16340    1.000
    H449     H        0.27240    0.71950    0.16440    1.000
    H450     H        0.27050    0.69500    0.19650    1.000
    C375     C        0.03120    0.71820    0.18370    1.000
    N145     N        0.16930    0.82640    0.22100    1.000
    N146     N        0.20190    0.80160    0.24290    1.000
    N147     N        0.02980    0.91430    0.19050    1.000
    N148     N        0.10970    0.67150    0.16060    1.000
    N149     N        0.03190    0.68430    0.16650    1.000
    N150     N        0.04930    0.89500    0.21810    1.000
    O265     O        0.30330    0.88400    0.23870    1.000
    O266     O        0.31960    0.84880    0.35376    1.000
    O267     O        0.29310    0.83370    0.29180    1.000
    O268     O        0.28090    0.77510    0.33780    1.000
    O269     O        0.18280    0.90980    0.34680    1.000
    O270     O        0.16050    0.83500    0.34279    1.000
    O271     O        0.44640    0.78500    0.34773    1.000
    O272     O        0.31800    0.90070    0.20140    1.000
    O273     O        0.30610    0.90900    0.30213    1.000
    O274     O        0.15660    0.87760    0.28270    1.000
    Co29     Co       0.17266    0.88794    0.23134    1.000
    Mo73     Mo       0.21947    0.87255    0.31336    1.000
    Mo74     Mo       0.22020    0.79779    0.37239    1.000
    Mo75     Mo       0.36951    0.79800    0.31533    1.000
    O275     O        0.38800    0.88950    0.18070    1.000
    C376     C        0.91630    0.38300    0.70410    1.000
    C377     C        0.97770    0.34960    0.75620    1.000
    H451     H        0.03050    0.35050    0.76670    1.000
    H452     H        0.93560    0.35920    0.77050    1.000
    H453     H        0.96550    0.32260    0.75010    1.000
    C378     C        0.18710    0.26330    0.73580    1.000
    C379     C        0.13260    0.30300    0.69870    1.000
    C380     C        0.15870    0.19800    0.67490    1.000
    C381     C        0.95220    0.23640    0.69450    1.000
    H454     H        0.90660    0.22150    0.68580    1.000
    H455     H        0.94950    0.23610    0.71750    1.000
    H456     H        0.94930    0.26350    0.68700    1.000
    C382     C        0.21920    0.23040    0.75640    1.000
    H457     H        0.24760    0.24140    0.77460    1.000
    H458     H        0.17390    0.21420    0.76370    1.000
    H459     H        0.25690    0.21420    0.74410    1.000
    C383     C        0.95110    0.40770    0.68110    1.000
    C384     C        0.08900    0.32000    0.66970    1.000
    H460     H        0.09150    0.34860    0.67040    1.000
    H461     H        0.11560    0.31060    0.65050    1.000
    H462     H        0.03220    0.31160    0.66970    1.000
    C385     C        0.11200    0.22850    0.68940    1.000
    C386     C        0.91830    0.42530    0.65110    1.000
    H463     H        0.96030    0.44140    0.64120    1.000
    H464     H        0.90190    0.40440    0.63670    1.000
    H465     H        0.87120    0.44170    0.65610    1.000
    C387     C        0.14250    0.26360    0.70700    1.000
    C388     C        0.98000    0.37570    0.72640    1.000
    C389     C        0.25060    0.19610    0.67480    1.000
    H466     H        0.26830    0.17270    0.66340    1.000
    H467     H        0.27240    0.21950    0.66440    1.000
    H468     H        0.27050    0.19500    0.69650    1.000
    C390     C        0.03120    0.21820    0.68370    1.000
    N151     N        0.16930    0.32640    0.72100    1.000
    N152     N        0.20190    0.30160    0.74290    1.000
    N153     N        0.02980    0.41430    0.69050    1.000
    N154     N        0.10970    0.17150    0.66060    1.000
    N155     N        0.03190    0.18430    0.66650    1.000
    N156     N        0.04930    0.39500    0.71810    1.000
    O276     O        0.30330    0.38400    0.73870    1.000
    O277     O        0.31960    0.34880    0.85376    1.000
    O278     O        0.29310    0.33370    0.79180    1.000
    O279     O        0.28090    0.27510    0.83780    1.000
    O280     O        0.18280    0.40980    0.84680    1.000
    O281     O        0.16050    0.33500    0.84279    1.000
    O282     O        0.44640    0.28500    0.84773    1.000
    O283     O        0.31800    0.40070    0.70140    1.000
    O284     O        0.30610    0.40900    0.80213    1.000
    O285     O        0.15660    0.37760    0.78270    1.000
    Co30     Co       0.17266    0.38794    0.73134    1.000
    Mo76     Mo       0.21947    0.37255    0.81336    1.000
    Mo77     Mo       0.22020    0.29779    0.87239    1.000
    Mo78     Mo       0.36951    0.29800    0.81533    1.000
    O286     O        0.38800    0.38950    0.68070    1.000
    C391     C        0.41630    0.88300    0.70410    1.000
    C392     C        0.47770    0.84960    0.75620    1.000
    H469     H        0.53050    0.85050    0.76670    1.000
    H470     H        0.43560    0.85920    0.77050    1.000
    H471     H        0.46550    0.82260    0.75010    1.000
    C393     C        0.68710    0.76330    0.73580    1.000
    C394     C        0.63260    0.80300    0.69870    1.000
    C395     C        0.65870    0.69800    0.67490    1.000
    C396     C        0.45220    0.73640    0.69450    1.000
    H472     H        0.40660    0.72150    0.68580    1.000
    H473     H        0.44950    0.73610    0.71750    1.000
    H474     H        0.44930    0.76350    0.68700    1.000
    C397     C        0.71920    0.73040    0.75640    1.000
    H475     H        0.74760    0.74140    0.77460    1.000
    H476     H        0.67390    0.71420    0.76370    1.000
    H477     H        0.75690    0.71420    0.74410    1.000
    C398     C        0.45110    0.90770    0.68110    1.000
    C399     C        0.58900    0.82000    0.66970    1.000
    H478     H        0.59150    0.84860    0.67040    1.000
    H479     H        0.61560    0.81060    0.65050    1.000
    H480     H        0.53220    0.81160    0.66970    1.000
    C400     C        0.61200    0.72850    0.68940    1.000
    C401     C        0.41830    0.92530    0.65110    1.000
    H481     H        0.46030    0.94140    0.64120    1.000
    H482     H        0.40190    0.90440    0.63670    1.000
    H483     H        0.37120    0.94170    0.65610    1.000
    C402     C        0.64250    0.76360    0.70700    1.000
    C403     C        0.48000    0.87570    0.72640    1.000
    C404     C        0.75060    0.69610    0.67480    1.000
    H484     H        0.76830    0.67270    0.66340    1.000
    H485     H        0.77240    0.71950    0.66440    1.000
    H486     H        0.77050    0.69500    0.69650    1.000
    C405     C        0.53120    0.71820    0.68370    1.000
    N157     N        0.66930    0.82640    0.72100    1.000
    N158     N        0.70190    0.80160    0.74290    1.000
    N159     N        0.52980    0.91430    0.69050    1.000
    N160     N        0.60970    0.67150    0.66060    1.000
    N161     N        0.53190    0.68430    0.66650    1.000
    N162     N        0.54930    0.89500    0.71810    1.000
    O287     O        0.80330    0.88400    0.73870    1.000
    O288     O        0.81960    0.84880    0.85376    1.000
    O289     O        0.79310    0.83370    0.79180    1.000
    O290     O        0.78090    0.77510    0.83780    1.000
    O291     O        0.68280    0.90980    0.84680    1.000
    O292     O        0.66050    0.83500    0.84279    1.000
    O293     O        0.94640    0.78500    0.84773    1.000
    O294     O        0.81800    0.90070    0.70140    1.000
    O295     O        0.80610    0.90900    0.80213    1.000
    O296     O        0.65660    0.87760    0.78270    1.000
    Co31     Co       0.67266    0.88794    0.73134    1.000
    Mo79     Mo       0.71947    0.87255    0.81336    1.000
    Mo80     Mo       0.72020    0.79779    0.87239    1.000
    Mo81     Mo       0.86951    0.79800    0.81533    1.000
    O297     O        0.88800    0.88950    0.68070    1.000
    C406     C        0.41630    0.38300    0.20410    1.000
    C407     C        0.47770    0.34960    0.25620    1.000
    H487     H        0.53050    0.35050    0.26670    1.000
    H488     H        0.43560    0.35920    0.27050    1.000
    H489     H        0.46550    0.32260    0.25010    1.000
    C408     C        0.68710    0.26330    0.23580    1.000
    C409     C        0.63260    0.30300    0.19870    1.000
    C410     C        0.65870    0.19800    0.17490    1.000
    C411     C        0.45220    0.23640    0.19450    1.000
    H490     H        0.40660    0.22150    0.18580    1.000
    H491     H        0.44950    0.23610    0.21750    1.000
    H492     H        0.44930    0.26350    0.18700    1.000
    C412     C        0.71920    0.23040    0.25640    1.000
    H493     H        0.74760    0.24140    0.27460    1.000
    H494     H        0.67390    0.21420    0.26370    1.000
    H495     H        0.75690    0.21420    0.24410    1.000
    C413     C        0.45110    0.40770    0.18110    1.000
    C414     C        0.58900    0.32000    0.16970    1.000
    H496     H        0.59150    0.34860    0.17040    1.000
    H497     H        0.61560    0.31060    0.15050    1.000
    H498     H        0.53220    0.31160    0.16970    1.000
    C415     C        0.61200    0.22850    0.18940    1.000
    C416     C        0.41830    0.42530    0.15110    1.000
    H499     H        0.46030    0.44140    0.14120    1.000
    H500     H        0.40190    0.40440    0.13670    1.000
    H501     H        0.37120    0.44170    0.15610    1.000
    C417     C        0.64250    0.26360    0.20700    1.000
    C418     C        0.48000    0.37570    0.22640    1.000
    C419     C        0.75060    0.19610    0.17480    1.000
    H502     H        0.76830    0.17270    0.16340    1.000
    H503     H        0.77240    0.21950    0.16440    1.000
    H504     H        0.77050    0.19500    0.19650    1.000
    C420     C        0.53120    0.21820    0.18370    1.000
    N163     N        0.66930    0.32640    0.22100    1.000
    N164     N        0.70190    0.30160    0.24290    1.000
    N165     N        0.52980    0.41430    0.19050    1.000
    N166     N        0.60970    0.17150    0.16060    1.000
    N167     N        0.53190    0.18430    0.16650    1.000
    N168     N        0.54930    0.39500    0.21810    1.000
    O298     O        0.80330    0.38400    0.23870    1.000
    O299     O        0.81960    0.34880    0.35376    1.000
    O300     O        0.79310    0.33370    0.29180    1.000
    O301     O        0.78090    0.27510    0.33780    1.000
    O302     O        0.68280    0.40980    0.34680    1.000
    O303     O        0.66050    0.33500    0.34279    1.000
    O304     O        0.94640    0.28500    0.34773    1.000
    O305     O        0.81800    0.40070    0.20140    1.000
    O306     O        0.80610    0.40900    0.30213    1.000
    O307     O        0.65660    0.37760    0.28270    1.000
    Co32     Co       0.67266    0.38794    0.23134    1.000
    Mo82     Mo       0.71947    0.37255    0.31336    1.000
    Mo83     Mo       0.72020    0.29779    0.37239    1.000
    Mo84     Mo       0.86951    0.29800    0.31533    1.000
    O308     O        0.88800    0.38950    0.18070    1.000
    C421     C        0.33370    0.36700    0.20410    1.000
    C422     C        0.27230    0.40040    0.25620    1.000
    H505     H        0.21950    0.39950    0.26670    1.000
    H506     H        0.31440    0.39080    0.27050    1.000
    H507     H        0.28450    0.42740    0.25010    1.000
    C423     C        0.06290    0.48670    0.23580    1.000
    C424     C        0.11740    0.44700    0.19870    1.000
    C425     C        0.09130    0.55200    0.17490    1.000
    C426     C        0.29780    0.51360    0.19450    1.000
    H508     H        0.34340    0.52850    0.18580    1.000
    H509     H        0.30050    0.51390    0.21750    1.000
    H510     H        0.30070    0.48650    0.18700    1.000
    C427     C        0.03080    0.51960    0.25640    1.000
    H511     H        0.00240    0.50860    0.27460    1.000
    H512     H        0.07610    0.53580    0.26370    1.000
    H513     H        0.99310    0.53580    0.24410    1.000
    C428     C        0.29890    0.34230    0.18110    1.000
    C429     C        0.16100    0.43000    0.16970    1.000
    H514     H        0.15850    0.40140    0.17040    1.000
    H515     H        0.13440    0.43940    0.15050    1.000
    H516     H        0.21780    0.43840    0.16970    1.000
    C430     C        0.13800    0.52150    0.18940    1.000
    C431     C        0.33170    0.32470    0.15110    1.000
    H517     H        0.28970    0.30860    0.14120    1.000
    H518     H        0.34810    0.34560    0.13670    1.000
    H519     H        0.37880    0.30830    0.15610    1.000
    C432     C        0.10750    0.48640    0.20700    1.000
    C433     C        0.27000    0.37430    0.22640    1.000
    C434     C        0.99940    0.55390    0.17480    1.000
    H520     H        0.98170    0.57730    0.16340    1.000
    H521     H        0.97760    0.53050    0.16440    1.000
    H522     H        0.97950    0.55500    0.19650    1.000
    C435     C        0.21880    0.53180    0.18370    1.000
    N169     N        0.08070    0.42360    0.22100    1.000
    N170     N        0.04810    0.44840    0.24290    1.000
    N171     N        0.22020    0.33570    0.19050    1.000
    N172     N        0.14030    0.57850    0.16060    1.000
    N173     N        0.21810    0.56570    0.16650    1.000
    N174     N        0.20070    0.35500    0.21810    1.000
    O309     O        0.94670    0.36600    0.23870    1.000
    O310     O        0.93040    0.40120    0.35376    1.000
    O311     O        0.95690    0.41630    0.29180    1.000
    O312     O        0.96910    0.47490    0.33780    1.000
    O313     O        0.06720    0.34020    0.34680    1.000
    O314     O        0.08950    0.41500    0.34279    1.000
    O315     O        0.80360    0.46500    0.34773    1.000
    O316     O        0.93200    0.34930    0.20140    1.000
    O317     O        0.94390    0.34100    0.30213    1.000
    O318     O        0.09340    0.37240    0.28270    1.000
    Co33     Co       0.07734    0.36206    0.23134    1.000
    Mo85     Mo       0.03053    0.37745    0.31336    1.000
    Mo86     Mo       0.02980    0.45221    0.37239    1.000
    Mo87     Mo       0.88049    0.45200    0.31533    1.000
    O319     O        0.86200    0.36050    0.18070    1.000
    C436     C        0.33370    0.86700    0.70410    1.000
    C437     C        0.27230    0.90040    0.75620    1.000
    H523     H        0.21950    0.89950    0.76670    1.000
    H524     H        0.31440    0.89080    0.77050    1.000
    H525     H        0.28450    0.92740    0.75010    1.000
    C438     C        0.06290    0.98670    0.73580    1.000
    C439     C        0.11740    0.94700    0.69870    1.000
    C440     C        0.09130    0.05200    0.67490    1.000
    C441     C        0.29780    0.01360    0.69450    1.000
    H526     H        0.34340    0.02850    0.68580    1.000
    H527     H        0.30050    0.01390    0.71750    1.000
    H528     H        0.30070    0.98650    0.68700    1.000
    C442     C        0.03080    0.01960    0.75640    1.000
    H529     H        0.00240    0.00860    0.77460    1.000
    H530     H        0.07610    0.03580    0.76370    1.000
    H531     H        0.99310    0.03580    0.74410    1.000
    C443     C        0.29890    0.84230    0.68110    1.000
    C444     C        0.16100    0.93000    0.66970    1.000
    H532     H        0.15850    0.90140    0.67040    1.000
    H533     H        0.13440    0.93940    0.65050    1.000
    H534     H        0.21780    0.93840    0.66970    1.000
    C445     C        0.13800    0.02150    0.68940    1.000
    C446     C        0.33170    0.82470    0.65110    1.000
    H535     H        0.28970    0.80860    0.64120    1.000
    H536     H        0.34810    0.84560    0.63670    1.000
    H537     H        0.37880    0.80830    0.65610    1.000
    C447     C        0.10750    0.98640    0.70700    1.000
    C448     C        0.27000    0.87430    0.72640    1.000
    C449     C        0.99940    0.05390    0.67480    1.000
    H538     H        0.98170    0.07730    0.66340    1.000
    H539     H        0.97760    0.03050    0.66440    1.000
    H540     H        0.97950    0.05500    0.69650    1.000
    C450     C        0.21880    0.03180    0.68370    1.000
    N175     N        0.08070    0.92360    0.72100    1.000
    N176     N        0.04810    0.94840    0.74290    1.000
    N177     N        0.22020    0.83570    0.69050    1.000
    N178     N        0.14030    0.07850    0.66060    1.000
    N179     N        0.21810    0.06570    0.66650    1.000
    N180     N        0.20070    0.85500    0.71810    1.000
    O320     O        0.94670    0.86600    0.73870    1.000
    O321     O        0.93040    0.90120    0.85376    1.000
    O322     O        0.95690    0.91630    0.79180    1.000
    O323     O        0.96910    0.97490    0.83780    1.000
    O324     O        0.06720    0.84020    0.84680    1.000
    O325     O        0.08950    0.91500    0.84279    1.000
    O326     O        0.80360    0.96500    0.84773    1.000
    O327     O        0.93200    0.84930    0.70140    1.000
    O328     O        0.94390    0.84100    0.80213    1.000
    O329     O        0.09340    0.87240    0.78270    1.000
    Co34     Co       0.07734    0.86206    0.73134    1.000
    Mo88     Mo       0.03053    0.87745    0.81336    1.000
    Mo89     Mo       0.02980    0.95221    0.87239    1.000
    Mo90     Mo       0.88049    0.95200    0.81533    1.000
    O330     O        0.86200    0.86050    0.68070    1.000
    C451     C        0.83370    0.36700    0.70410    1.000
    C452     C        0.77230    0.40040    0.75620    1.000
    H541     H        0.71950    0.39950    0.76670    1.000
    H542     H        0.81440    0.39080    0.77050    1.000
    H543     H        0.78450    0.42740    0.75010    1.000
    C453     C        0.56290    0.48670    0.73580    1.000
    C454     C        0.61740    0.44700    0.69870    1.000
    C455     C        0.59130    0.55200    0.67490    1.000
    C456     C        0.79780    0.51360    0.69450    1.000
    H544     H        0.84340    0.52850    0.68580    1.000
    H545     H        0.80050    0.51390    0.71750    1.000
    H546     H        0.80070    0.48650    0.68700    1.000
    C457     C        0.53080    0.51960    0.75640    1.000
    H547     H        0.50240    0.50860    0.77460    1.000
    H548     H        0.57610    0.53580    0.76370    1.000
    H549     H        0.49310    0.53580    0.74410    1.000
    C458     C        0.79890    0.34230    0.68110    1.000
    C459     C        0.66100    0.43000    0.66970    1.000
    H550     H        0.65850    0.40140    0.67040    1.000
    H551     H        0.63440    0.43940    0.65050    1.000
    H552     H        0.71780    0.43840    0.66970    1.000
    C460     C        0.63800    0.52150    0.68940    1.000
    C461     C        0.83170    0.32470    0.65110    1.000
    H553     H        0.78970    0.30860    0.64120    1.000
    H554     H        0.84810    0.34560    0.63670    1.000
    H555     H        0.87880    0.30830    0.65610    1.000
    C462     C        0.60750    0.48640    0.70700    1.000
    C463     C        0.77000    0.37430    0.72640    1.000
    C464     C        0.49940    0.55390    0.67480    1.000
    H556     H        0.48170    0.57730    0.66340    1.000
    H557     H        0.47760    0.53050    0.66440    1.000
    H558     H        0.47950    0.55500    0.69650    1.000
    C465     C        0.71880    0.53180    0.68370    1.000
    N181     N        0.58070    0.42360    0.72100    1.000
    N182     N        0.54810    0.44840    0.74290    1.000
    N183     N        0.72020    0.33570    0.69050    1.000
    N184     N        0.64030    0.57850    0.66060    1.000
    N185     N        0.71810    0.56570    0.66650    1.000
    N186     N        0.70070    0.35500    0.71810    1.000
    O331     O        0.44670    0.36600    0.73870    1.000
    O332     O        0.43040    0.40120    0.85376    1.000
    O333     O        0.45690    0.41630    0.79180    1.000
    O334     O        0.46910    0.47490    0.83780    1.000
    O335     O        0.56720    0.34020    0.84680    1.000
    O336     O        0.58950    0.41500    0.84279    1.000
    O337     O        0.30360    0.46500    0.84773    1.000
    O338     O        0.43200    0.34930    0.70140    1.000
    O339     O        0.44390    0.34100    0.80213    1.000
    O340     O        0.59340    0.37240    0.78270    1.000
    Co35     Co       0.57734    0.36206    0.73134    1.000
    Mo91     Mo       0.53053    0.37745    0.81336    1.000
    Mo92     Mo       0.52980    0.45221    0.87239    1.000
    Mo93     Mo       0.38049    0.45200    0.81533    1.000
    O341     O        0.36200    0.36050    0.68070    1.000
    C466     C        0.83370    0.86700    0.20410    1.000
    C467     C        0.77230    0.90040    0.25620    1.000
    H559     H        0.71950    0.89950    0.26670    1.000
    H560     H        0.81440    0.89080    0.27050    1.000
    H561     H        0.78450    0.92740    0.25010    1.000
    C468     C        0.56290    0.98670    0.23580    1.000
    C469     C        0.61740    0.94700    0.19870    1.000
    C470     C        0.59130    0.05200    0.17490    1.000
    C471     C        0.79780    0.01360    0.19450    1.000
    H562     H        0.84340    0.02850    0.18580    1.000
    H563     H        0.80050    0.01390    0.21750    1.000
    H564     H        0.80070    0.98650    0.18700    1.000
    C472     C        0.53080    0.01960    0.25640    1.000
    H565     H        0.50240    0.00860    0.27460    1.000
    H566     H        0.57610    0.03580    0.26370    1.000
    H567     H        0.49310    0.03580    0.24410    1.000
    C473     C        0.79890    0.84230    0.18110    1.000
    C474     C        0.66100    0.93000    0.16970    1.000
    H568     H        0.65850    0.90140    0.17040    1.000
    H569     H        0.63440    0.93940    0.15050    1.000
    H570     H        0.71780    0.93840    0.16970    1.000
    C475     C        0.63800    0.02150    0.18940    1.000
    C476     C        0.83170    0.82470    0.15110    1.000
    H571     H        0.78970    0.80860    0.14120    1.000
    H572     H        0.84810    0.84560    0.13670    1.000
    H573     H        0.87880    0.80830    0.15610    1.000
    C477     C        0.60750    0.98640    0.20700    1.000
    C478     C        0.77000    0.87430    0.22640    1.000
    C479     C        0.49940    0.05390    0.17480    1.000
    H574     H        0.48170    0.07730    0.16340    1.000
    H575     H        0.47760    0.03050    0.16440    1.000
    H576     H        0.47950    0.05500    0.19650    1.000
    C480     C        0.71880    0.03180    0.18370    1.000
    N187     N        0.58070    0.92360    0.22100    1.000
    N188     N        0.54810    0.94840    0.24290    1.000
    N189     N        0.72020    0.83570    0.19050    1.000
    N190     N        0.64030    0.07850    0.16060    1.000
    N191     N        0.71810    0.06570    0.16650    1.000
    N192     N        0.70070    0.85500    0.21810    1.000
    O342     O        0.44670    0.86600    0.23870    1.000
    O343     O        0.43040    0.90120    0.35376    1.000
    O344     O        0.45690    0.91630    0.29180    1.000
    O345     O        0.46910    0.97490    0.33780    1.000
    O346     O        0.56720    0.84020    0.34680    1.000
    O347     O        0.58950    0.91500    0.34279    1.000
    O348     O        0.30360    0.96500    0.34773    1.000
    O349     O        0.43200    0.84930    0.20140    1.000
    O350     O        0.44390    0.84100    0.30213    1.000
    O351     O        0.59340    0.87240    0.28270    1.000
    Co36     Co       0.57734    0.86206    0.23134    1.000
    Mo94     Mo       0.53053    0.87745    0.31336    1.000
    Mo95     Mo       0.52980    0.95221    0.37239    1.000
    Mo96     Mo       0.38049    0.95200    0.31533    1.000
    O352     O        0.36200    0.86050    0.18070    1.000
    V17      V        0.12471    0.87500    0.87500    1.000
    V18      V        0.62471    0.87500    0.37500    1.000
    V19      V        0.12529    0.37500    0.87500    1.000
    V20      V        0.62529    0.37500    0.37500    1.000
    V21      V        0.12529    0.87500    0.37500    1.000
    V22      V        0.62529    0.87500    0.87500    1.000
    V23      V        0.12471    0.37500    0.37500    1.000
    V24      V        0.62471    0.37500    0.87500    1.000
    P5       P        0.87500    0.87500    0.87500    1.000
    P6       P        0.37500    0.37500    0.87500    1.000
    P7       P        0.37500    0.87500    0.37500    1.000
    P8       P        0.87500    0.37500    0.37500    1.000
    V25      V        0.87500    0.87500    0.97371    1.000
    S9       S        0.87500    0.87500    0.03890    1.000
    V26      V        0.87500    0.37500    0.47371    1.000
    S10      S        0.87500    0.37500    0.53890    1.000
    V27      V        0.37500    0.37500    0.97371    1.000
    S11      S        0.37500    0.37500    0.03890    1.000
    V28      V        0.37500    0.87500    0.47371    1.000
    S12      S        0.37500    0.87500    0.53890    1.000
    V29      V        0.37500    0.87500    0.27629    1.000
    S13      S        0.37500    0.87500    0.21110    1.000
    V30      V        0.37500    0.37500    0.77629    1.000
    S14      S        0.37500    0.37500    0.71110    1.000
    V31      V        0.87500    0.37500    0.27629    1.000
    S15      S        0.87500    0.37500    0.21110    1.000
    V32      V        0.87500    0.87500    0.77629    1.000
    S16      S        0.87500    0.87500    0.71110    1.000
    Co37     Co       0.62500    0.12500    0.12500    1.000
    Co38     Co       0.12500    0.62500    0.12500    1.000
    Co39     Co       0.12500    0.12500    0.62500    1.000
    Co40     Co       0.62500    0.62500    0.62500    1.000
