# CIF file generated by openbabel 3.1.0, see https://openbabel.org
data_I
_chemical_name_common 'image0'
_cell_length_a 16.6308
_cell_length_b 16.6308
_cell_length_c 51.164
_cell_angle_alpha 90
_cell_angle_beta 90
_cell_angle_gamma 120
_space_group_name_H-M_alt 'P 1'
_space_group_name_Hall 'P 1'
loop_
    _symmetry_equiv_pos_as_xyz
    x,y,z
loop_
    _atom_site_label
    _atom_site_type_symbol
    _atom_site_fract_x
    _atom_site_fract_y
    _atom_site_fract_z
    _atom_site_occupancy
    W1       W        0.52541    0.63951    0.17242    1.000
    W2       W        0.29141    0.43915    0.16837    1.000
    W3       W        0.39246    0.59167    0.11161    1.000
    W4       W        0.48007    0.73175    0.22288    1.000
    Lu1      Lu       0.77256    0.65682    0.17278    1.000
    C1       C        0.68350    0.71440    0.09430    1.000
    O1       O        0.42230    0.52760    0.17650    1.000
    O2       O        0.61320    0.61110    0.16890    1.000
    O3       O        0.61230    0.77350    0.16340    1.000
    C2       C        0.60420    0.71250    0.05430    1.000
    O4       O        0.26270    0.55060    0.17920    1.000
    O5       O        0.48760    0.63360    0.13480    1.000
    N1       N        0.66260    0.83850    0.08480    1.000
    O6       O        0.52810    0.58020    0.02950    1.000
    O7       O        0.75410    0.70770    0.13370    1.000
    O8       O        0.27500    0.42970    0.20600    1.000
    O9       O        0.31900    0.48760    0.13370    1.000
    O10      O        0.39380    0.77070    0.22560    1.000
    O11      O        0.44000    0.71010    0.09550    1.000
    O12      O        0.53340    0.70390    0.01450    1.000
    C3       C        0.71900    0.66520    0.11150    1.000
    O13      O        0.71770    0.59420    0.10440    1.000
    C4       C        0.55070    0.66150    0.03090    1.000
    O14      O        0.54790    0.66910    0.20810    1.000
    C5       C        0.61780    0.79940    0.06230    1.000
    H1       H        0.59560    0.83160    0.05170    1.000
    C6       C        0.69320    0.79780    0.09930    1.000
    H2       H        0.72330    0.83650    0.11410    1.000
    C7       C        0.63900    0.67050    0.07180    1.000
    H3       H        0.63120    0.61250    0.06770    1.000
    W5       W        0.19208    0.97284    0.50575    1.000
    W6       W        0.95808    0.77248    0.50170    1.000
    W7       W        0.05913    0.92500    0.44494    1.000
    W8       W        0.14674    0.06508    0.55621    1.000
    Lu2      Lu       0.43923    0.99015    0.50612    1.000
    C8       C        0.35017    0.04773    0.42763    1.000
    O15      O        0.08897    0.86093    0.50983    1.000
    O16      O        0.27987    0.94443    0.50223    1.000
    O17      O        0.27897    0.10683    0.49673    1.000
    C9       C        0.27087    0.04583    0.38763    1.000
    O18      O        0.92937    0.88393    0.51253    1.000
    O19      O        0.15427    0.96693    0.46813    1.000
    N2       N        0.32927    0.17183    0.41813    1.000
    O20      O        0.19477    0.91353    0.36283    1.000
    O21      O        0.42077    0.04103    0.46703    1.000
    O22      O        0.94167    0.76303    0.53933    1.000
    O23      O        0.98567    0.82093    0.46703    1.000
    O24      O        0.06047    0.10403    0.55893    1.000
    O25      O        0.10667    0.04343    0.42883    1.000
    O26      O        0.20007    0.03723    0.34783    1.000
    C10      C        0.38567    0.99853    0.44483    1.000
    O27      O        0.38437    0.92753    0.43773    1.000
    C11      C        0.21737    0.99483    0.36423    1.000
    O28      O        0.21457    0.00243    0.54143    1.000
    C12      C        0.28447    0.13273    0.39563    1.000
    H4       H        0.26227    0.16493    0.38503    1.000
    C13      C        0.35987    0.13113    0.43263    1.000
    H5       H        0.38997    0.16983    0.44743    1.000
    C14      C        0.30567    0.00383    0.40513    1.000
    H6       H        0.29787    0.94583    0.40103    1.000
    W9       W        0.85874    0.30618    0.83909    1.000
    W10      W        0.62474    0.10582    0.83504    1.000
    W11      W        0.72579    0.25834    0.77828    1.000
    W12      W        0.81340    0.39842    0.88955    1.000
    Lu3      Lu       0.10589    0.32349    0.83945    1.000
    C15      C        0.01683    0.38107    0.76097    1.000
    O29      O        0.75563    0.19427    0.84317    1.000
    O30      O        0.94653    0.27777    0.83557    1.000
    O31      O        0.94563    0.44017    0.83007    1.000
    C16      C        0.93753    0.37917    0.72097    1.000
    O32      O        0.59603    0.21727    0.84587    1.000
    O33      O        0.82093    0.30027    0.80147    1.000
    N3       N        0.99593    0.50517    0.75147    1.000
    O34      O        0.86143    0.24687    0.69617    1.000
    O35      O        0.08743    0.37437    0.80037    1.000
    O36      O        0.60833    0.09637    0.87267    1.000
    O37      O        0.65233    0.15427    0.80037    1.000
    O38      O        0.72713    0.43737    0.89227    1.000
    O39      O        0.77333    0.37677    0.76217    1.000
    O40      O        0.86673    0.37057    0.68117    1.000
    C17      C        0.05233    0.33187    0.77817    1.000
    O41      O        0.05103    0.26087    0.77107    1.000
    C18      C        0.88403    0.32817    0.69757    1.000
    O42      O        0.88123    0.33577    0.87477    1.000
    C19      C        0.95113    0.46607    0.72897    1.000
    H7       H        0.92893    0.49827    0.71837    1.000
    C20      C        0.02653    0.46447    0.76597    1.000
    H8       H        0.05663    0.50317    0.78077    1.000
    C21      C        0.97233    0.33717    0.73847    1.000
    H9       H        0.96453    0.27917    0.73437    1.000
    W13      W        0.36049    0.88590    0.17242    1.000
    W14      W        0.56085    0.85226    0.16837    1.000
    W15      W        0.40833    0.80079    0.11161    1.000
    W16      W        0.26825    0.74832    0.22288    1.000
    Lu4      Lu       0.34318    0.11574    0.17278    1.000
    C22      C        0.28560    0.96910    0.09430    1.000
    O43      O        0.47240    0.89470    0.17650    1.000
    O44      O        0.38890    0.00210    0.16890    1.000
    O45      O        0.22650    0.83880    0.16340    1.000
    C23      C        0.28750    0.89170    0.05430    1.000
    O46      O        0.44940    0.71210    0.17920    1.000
    O47      O        0.36640    0.85400    0.13480    1.000
    N4       N        0.16150    0.82410    0.08480    1.000
    O48      O        0.41980    0.94790    0.02950    1.000
    O49      O        0.29230    0.04640    0.13370    1.000
    O50      O        0.57030    0.84530    0.20600    1.000
    O51      O        0.51240    0.83140    0.13370    1.000
    O52      O        0.22930    0.62310    0.22560    1.000
    O53      O        0.28990    0.72990    0.09550    1.000
    O54      O        0.29610    0.82950    0.01450    1.000
    C24      C        0.33480    0.05380    0.11150    1.000
    O55      O        0.40580    0.12350    0.10440    1.000
    C25      C        0.33850    0.88920    0.03090    1.000
    O56      O        0.33090    0.87880    0.20810    1.000
    C26      C        0.20060    0.81840    0.06230    1.000
    H10      H        0.16840    0.76400    0.05170    1.000
    C27      C        0.20220    0.89540    0.09930    1.000
    H11      H        0.16350    0.88680    0.11410    1.000
    C28      C        0.32950    0.96850    0.07180    1.000
    H12      H        0.38750    0.01870    0.06770    1.000
    W17      W        0.02716    0.21923    0.50575    1.000
    W18      W        0.22752    0.18559    0.50170    1.000
    W19      W        0.07500    0.13412    0.44494    1.000
    W20      W        0.93492    0.08165    0.55621    1.000
    Lu5      Lu       0.00985    0.44907    0.50612    1.000
    C29      C        0.95227    0.30243    0.42763    1.000
    O57      O        0.13907    0.22803    0.50983    1.000
    O58      O        0.05557    0.33543    0.50223    1.000
    O59      O        0.89317    0.17213    0.49673    1.000
    C30      C        0.95417    0.22503    0.38763    1.000
    O60      O        0.11607    0.04543    0.51253    1.000
    O61      O        0.03307    0.18733    0.46813    1.000
    N5       N        0.82817    0.15743    0.41813    1.000
    O62      O        0.08647    0.28123    0.36283    1.000
    O63      O        0.95897    0.37973    0.46703    1.000
    O64      O        0.23697    0.17863    0.53933    1.000
    O65      O        0.17907    0.16473    0.46703    1.000
    O66      O        0.89597    0.95643    0.55893    1.000
    O67      O        0.95657    0.06323    0.42883    1.000
    O68      O        0.96277    0.16283    0.34783    1.000
    C31      C        0.00147    0.38713    0.44483    1.000
    O69      O        0.07247    0.45683    0.43773    1.000
    C32      C        0.00517    0.22253    0.36423    1.000
    O70      O        0.99757    0.21213    0.54143    1.000
    C33      C        0.86727    0.15173    0.39563    1.000
    H13      H        0.83507    0.09733    0.38503    1.000
    C34      C        0.86887    0.22873    0.43263    1.000
    H14      H        0.83017    0.22013    0.44743    1.000
    C35      C        0.99617    0.30183    0.40513    1.000
    H15      H        0.05417    0.35203    0.40103    1.000
    W21      W        0.69382    0.55257    0.83909    1.000
    W22      W        0.89418    0.51893    0.83504    1.000
    W23      W        0.74166    0.46746    0.77828    1.000
    W24      W        0.60158    0.41499    0.88955    1.000
    Lu6      Lu       0.67651    0.78241    0.83945    1.000
    C36      C        0.61893    0.63577    0.76097    1.000
    O71      O        0.80573    0.56137    0.84317    1.000
    O72      O        0.72223    0.66877    0.83557    1.000
    O73      O        0.55983    0.50547    0.83007    1.000
    C37      C        0.62083    0.55837    0.72097    1.000
    O74      O        0.78273    0.37877    0.84587    1.000
    O75      O        0.69973    0.52067    0.80147    1.000
    N6       N        0.49483    0.49077    0.75147    1.000
    O76      O        0.75313    0.61457    0.69617    1.000
    O77      O        0.62563    0.71307    0.80037    1.000
    O78      O        0.90363    0.51197    0.87267    1.000
    O79      O        0.84573    0.49807    0.80037    1.000
    O80      O        0.56263    0.28977    0.89227    1.000
    O81      O        0.62323    0.39657    0.76217    1.000
    O82      O        0.62943    0.49617    0.68117    1.000
    C38      C        0.66813    0.72047    0.77817    1.000
    O83      O        0.73913    0.79017    0.77107    1.000
    C39      C        0.67183    0.55587    0.69757    1.000
    O84      O        0.66423    0.54547    0.87477    1.000
    C40      C        0.53393    0.48507    0.72897    1.000
    H16      H        0.50173    0.43067    0.71837    1.000
    C41      C        0.53553    0.56207    0.76597    1.000
    H17      H        0.49683    0.55347    0.78077    1.000
    C42      C        0.66283    0.63517    0.73847    1.000
    H18      H        0.72083    0.68537    0.73437    1.000
    W25      W        0.11410    0.47459    0.17242    1.000
    W26      W        0.14774    0.70859    0.16837    1.000
    W27      W        0.19921    0.60754    0.11161    1.000
    W28      W        0.25168    0.51993    0.22288    1.000
    Lu7      Lu       0.88426    0.22744    0.17278    1.000
    C43      C        0.03090    0.31650    0.09430    1.000
    O85      O        0.10530    0.57770    0.17650    1.000
    O86      O        0.99790    0.38680    0.16890    1.000
    O87      O        0.16120    0.38770    0.16340    1.000
    C44      C        0.10830    0.39580    0.05430    1.000
    O88      O        0.28790    0.73730    0.17920    1.000
    O89      O        0.14600    0.51240    0.13480    1.000
    N7       N        0.17590    0.33740    0.08480    1.000
    O90      O        0.05210    0.47190    0.02950    1.000
    O91      O        0.95360    0.24590    0.13370    1.000
    O92      O        0.15470    0.72500    0.20600    1.000
    O93      O        0.16860    0.68100    0.13370    1.000
    O94      O        0.37690    0.60620    0.22560    1.000
    O95      O        0.27010    0.56000    0.09550    1.000
    O96      O        0.17050    0.46660    0.01450    1.000
    C45      C        0.94620    0.28100    0.11150    1.000
    O97      O        0.87650    0.28230    0.10440    1.000
    C46      C        0.11080    0.44930    0.03090    1.000
    O98      O        0.12120    0.45210    0.20810    1.000
    C47      C        0.18160    0.38220    0.06230    1.000
    H19      H        0.23600    0.40440    0.05170    1.000
    C48      C        0.10460    0.30680    0.09930    1.000
    H20      H        0.11320    0.27670    0.11410    1.000
    C49      C        0.03150    0.36100    0.07180    1.000
    H21      H        0.98130    0.36880    0.06770    1.000
    W29      W        0.78077    0.80792    0.50575    1.000
    W30      W        0.81441    0.04192    0.50170    1.000
    W31      W        0.86588    0.94087    0.44494    1.000
    W32      W        0.91835    0.85326    0.55621    1.000
    Lu8      Lu       0.55093    0.56077    0.50612    1.000
    C50      C        0.69757    0.64983    0.42763    1.000
    O99      O        0.77197    0.91103    0.50983    1.000
    O100     O        0.66457    0.72013    0.50223    1.000
    O101     O        0.82787    0.72103    0.49673    1.000
    C51      C        0.77497    0.72913    0.38763    1.000
    O102     O        0.95457    0.07063    0.51253    1.000
    O103     O        0.81267    0.84573    0.46813    1.000
    N8       N        0.84257    0.67073    0.41813    1.000
    O104     O        0.71877    0.80523    0.36283    1.000
    O105     O        0.62027    0.57923    0.46703    1.000
    O106     O        0.82137    0.05833    0.53933    1.000
    O107     O        0.83527    0.01433    0.46703    1.000
    O108     O        0.04357    0.93953    0.55893    1.000
    O109     O        0.93677    0.89333    0.42883    1.000
    O110     O        0.83717    0.79993    0.34783    1.000
    C52      C        0.61287    0.61433    0.44483    1.000
    O111     O        0.54317    0.61563    0.43773    1.000
    C53      C        0.77747    0.78263    0.36423    1.000
    O112     O        0.78787    0.78543    0.54143    1.000
    C54      C        0.84827    0.71553    0.39563    1.000
    H22      H        0.90267    0.73773    0.38503    1.000
    C55      C        0.77127    0.64013    0.43263    1.000
    H23      H        0.77987    0.61003    0.44743    1.000
    C56      C        0.69817    0.69433    0.40513    1.000
    H24      H        0.64797    0.70213    0.40103    1.000
    W33      W        0.44743    0.14126    0.83909    1.000
    W34      W        0.48107    0.37526    0.83504    1.000
    W35      W        0.53254    0.27421    0.77828    1.000
    W36      W        0.58501    0.18660    0.88955    1.000
    Lu9      Lu       0.21759    0.89411    0.83945    1.000
    C57      C        0.36423    0.98317    0.76097    1.000
    O113     O        0.43863    0.24437    0.84317    1.000
    O114     O        0.33123    0.05347    0.83557    1.000
    O115     O        0.49453    0.05437    0.83007    1.000
    C58      C        0.44163    0.06247    0.72097    1.000
    O116     O        0.62123    0.40397    0.84587    1.000
    O117     O        0.47933    0.17907    0.80147    1.000
    N9       N        0.50923    0.00407    0.75147    1.000
    O118     O        0.38543    0.13857    0.69617    1.000
    O119     O        0.28693    0.91257    0.80037    1.000
    O120     O        0.48803    0.39167    0.87267    1.000
    O121     O        0.50193    0.34767    0.80037    1.000
    O122     O        0.71023    0.27287    0.89227    1.000
    O123     O        0.60343    0.22667    0.76217    1.000
    O124     O        0.50383    0.13327    0.68117    1.000
    C59      C        0.27953    0.94767    0.77817    1.000
    O125     O        0.20983    0.94897    0.77107    1.000
    C60      C        0.44413    0.11597    0.69757    1.000
    O126     O        0.45453    0.11877    0.87477    1.000
    C61      C        0.51493    0.04887    0.72897    1.000
    H25      H        0.56933    0.07107    0.71837    1.000
    C62      C        0.43793    0.97347    0.76597    1.000
    H26      H        0.44653    0.94337    0.78077    1.000
    C63      C        0.36483    0.02767    0.73847    1.000
    H27      H        0.31463    0.03547    0.73437    1.000
    W37      W        0.36049    0.47459    0.67242    1.000
    W38      W        0.56085    0.70859    0.66837    1.000
    W39      W        0.40833    0.60754    0.61161    1.000
    W40      W        0.26825    0.51993    0.72288    1.000
    Lu10     Lu       0.34318    0.22744    0.67278    1.000
    C64      C        0.28560    0.31650    0.59430    1.000
    O127     O        0.47240    0.57770    0.67650    1.000
    O128     O        0.38890    0.38680    0.66890    1.000
    O129     O        0.22650    0.38770    0.66340    1.000
    C65      C        0.28750    0.39580    0.55430    1.000
    O130     O        0.44940    0.73730    0.67920    1.000
    O131     O        0.36640    0.51240    0.63480    1.000
    N10      N        0.16150    0.33740    0.58480    1.000
    O132     O        0.41980    0.47190    0.52950    1.000
    O133     O        0.29230    0.24590    0.63370    1.000
    O134     O        0.57030    0.72500    0.70600    1.000
    O135     O        0.51240    0.68100    0.63370    1.000
    O136     O        0.22930    0.60620    0.72560    1.000
    O137     O        0.28990    0.56000    0.59550    1.000
    O138     O        0.29610    0.46660    0.51450    1.000
    C66      C        0.33480    0.28100    0.61150    1.000
    O139     O        0.40580    0.28230    0.60440    1.000
    C67      C        0.33850    0.44930    0.53090    1.000
    O140     O        0.33090    0.45210    0.70810    1.000
    C68      C        0.20060    0.38220    0.56230    1.000
    H28      H        0.16840    0.40440    0.55170    1.000
    C69      C        0.20220    0.30680    0.59930    1.000
    H29      H        0.16350    0.27670    0.61410    1.000
    C70      C        0.32950    0.36100    0.57180    1.000
    H30      H        0.38750    0.36880    0.56770    1.000
    W41      W        0.02716    0.80792    0.00575    1.000
    W42      W        0.22752    0.04192    0.00170    1.000
    W43      W        0.07500    0.94087    0.94494    1.000
    W44      W        0.93492    0.85326    0.05621    1.000
    Lu11     Lu       0.00985    0.56077    0.00612    1.000
    C71      C        0.95227    0.64983    0.92763    1.000
    O141     O        0.13907    0.91103    0.00983    1.000
    O142     O        0.05557    0.72013    0.00223    1.000
    O143     O        0.89317    0.72103    0.99673    1.000
    C72      C        0.95417    0.72913    0.88763    1.000
    O144     O        0.11607    0.07063    0.01253    1.000
    O145     O        0.03307    0.84573    0.96813    1.000
    N11      N        0.82817    0.67073    0.91813    1.000
    O146     O        0.08647    0.80523    0.86283    1.000
    O147     O        0.95897    0.57923    0.96703    1.000
    O148     O        0.23697    0.05833    0.03933    1.000
    O149     O        0.17907    0.01433    0.96703    1.000
    O150     O        0.89597    0.93953    0.05893    1.000
    O151     O        0.95657    0.89333    0.92883    1.000
    O152     O        0.96277    0.79993    0.84783    1.000
    C73      C        0.00147    0.61433    0.94483    1.000
    O153     O        0.07247    0.61563    0.93773    1.000
    C74      C        0.00517    0.78263    0.86423    1.000
    O154     O        0.99757    0.78543    0.04143    1.000
    C75      C        0.86727    0.71553    0.89563    1.000
    H31      H        0.83507    0.73773    0.88503    1.000
    C76      C        0.86887    0.64013    0.93263    1.000
    H32      H        0.83017    0.61003    0.94743    1.000
    C77      C        0.99617    0.69433    0.90513    1.000
    H33      H        0.05417    0.70213    0.90103    1.000
    W45      W        0.69382    0.14126    0.33909    1.000
    W46      W        0.89418    0.37526    0.33504    1.000
    W47      W        0.74166    0.27421    0.27828    1.000
    W48      W        0.60158    0.18660    0.38955    1.000
    Lu12     Lu       0.67651    0.89411    0.33945    1.000
    C78      C        0.61893    0.98317    0.26097    1.000
    O155     O        0.80573    0.24437    0.34317    1.000
    O156     O        0.72223    0.05347    0.33557    1.000
    O157     O        0.55983    0.05437    0.33007    1.000
    C79      C        0.62083    0.06247    0.22097    1.000
    O158     O        0.78273    0.40397    0.34587    1.000
    O159     O        0.69973    0.17907    0.30147    1.000
    N12      N        0.49483    0.00407    0.25147    1.000
    O160     O        0.75313    0.13857    0.19617    1.000
    O161     O        0.62563    0.91257    0.30037    1.000
    O162     O        0.90363    0.39167    0.37267    1.000
    O163     O        0.84573    0.34767    0.30037    1.000
    O164     O        0.56263    0.27287    0.39227    1.000
    O165     O        0.62323    0.22667    0.26217    1.000
    O166     O        0.62943    0.13327    0.18117    1.000
    C80      C        0.66813    0.94767    0.27817    1.000
    O167     O        0.73913    0.94897    0.27107    1.000
    C81      C        0.67183    0.11597    0.19757    1.000
    O168     O        0.66423    0.11877    0.37477    1.000
    C82      C        0.53393    0.04887    0.22897    1.000
    H34      H        0.50173    0.07107    0.21837    1.000
    C83      C        0.53553    0.97347    0.26597    1.000
    H35      H        0.49683    0.94337    0.28077    1.000
    C84      C        0.66283    0.02767    0.23847    1.000
    H36      H        0.72083    0.03547    0.23437    1.000
    W49      W        0.11410    0.63951    0.67242    1.000
    W50      W        0.14774    0.43915    0.66837    1.000
    W51      W        0.19921    0.59167    0.61161    1.000
    W52      W        0.25168    0.73175    0.72288    1.000
    Lu13     Lu       0.88426    0.65682    0.67278    1.000
    C85      C        0.03090    0.71440    0.59430    1.000
    O169     O        0.10530    0.52760    0.67650    1.000
    O170     O        0.99790    0.61110    0.66890    1.000
    O171     O        0.16120    0.77350    0.66340    1.000
    C86      C        0.10830    0.71250    0.55430    1.000
    O172     O        0.28790    0.55060    0.67920    1.000
    O173     O        0.14600    0.63360    0.63480    1.000
    N13      N        0.17590    0.83850    0.58480    1.000
    O174     O        0.05210    0.58020    0.52950    1.000
    O175     O        0.95360    0.70770    0.63370    1.000
    O176     O        0.15470    0.42970    0.70600    1.000
    O177     O        0.16860    0.48760    0.63370    1.000
    O178     O        0.37690    0.77070    0.72560    1.000
    O179     O        0.27010    0.71010    0.59550    1.000
    O180     O        0.17050    0.70390    0.51450    1.000
    C87      C        0.94620    0.66520    0.61150    1.000
    O181     O        0.87650    0.59420    0.60440    1.000
    C88      C        0.11080    0.66150    0.53090    1.000
    O182     O        0.12120    0.66910    0.70810    1.000
    C89      C        0.18160    0.79940    0.56230    1.000
    H37      H        0.23600    0.83160    0.55170    1.000
    C90      C        0.10460    0.79780    0.59930    1.000
    H38      H        0.11320    0.83650    0.61410    1.000
    C91      C        0.03150    0.67050    0.57180    1.000
    H39      H        0.98130    0.61250    0.56770    1.000
    W53      W        0.78077    0.97284    0.00575    1.000
    W54      W        0.81441    0.77248    0.00170    1.000
    W55      W        0.86588    0.92500    0.94494    1.000
    W56      W        0.91835    0.06508    0.05621    1.000
    Lu14     Lu       0.55093    0.99015    0.00612    1.000
    C92      C        0.69757    0.04773    0.92763    1.000
    O183     O        0.77197    0.86093    0.00983    1.000
    O184     O        0.66457    0.94443    0.00223    1.000
    O185     O        0.82787    0.10683    0.99673    1.000
    C93      C        0.77497    0.04583    0.88763    1.000
    O186     O        0.95457    0.88393    0.01253    1.000
    O187     O        0.81267    0.96693    0.96813    1.000
    N14      N        0.84257    0.17183    0.91813    1.000
    O188     O        0.71877    0.91353    0.86283    1.000
    O189     O        0.62027    0.04103    0.96703    1.000
    O190     O        0.82137    0.76303    0.03933    1.000
    O191     O        0.83527    0.82093    0.96703    1.000
    O192     O        0.04357    0.10403    0.05893    1.000
    O193     O        0.93677    0.04343    0.92883    1.000
    O194     O        0.83717    0.03723    0.84783    1.000
    C94      C        0.61287    0.99853    0.94483    1.000
    O195     O        0.54317    0.92753    0.93773    1.000
    C95      C        0.77747    0.99483    0.86423    1.000
    O196     O        0.78787    0.00243    0.04143    1.000
    C96      C        0.84827    0.13273    0.89563    1.000
    H40      H        0.90267    0.16493    0.88503    1.000
    C97      C        0.77127    0.13113    0.93263    1.000
    H41      H        0.77987    0.16983    0.94743    1.000
    C98      C        0.69817    0.00383    0.90513    1.000
    H42      H        0.64797    0.94583    0.90103    1.000
    W57      W        0.44743    0.30618    0.33909    1.000
    W58      W        0.48107    0.10582    0.33504    1.000
    W59      W        0.53254    0.25834    0.27828    1.000
    W60      W        0.58501    0.39842    0.38955    1.000
    Lu15     Lu       0.21759    0.32349    0.33945    1.000
    C99      C        0.36423    0.38107    0.26097    1.000
    O197     O        0.43863    0.19427    0.34317    1.000
    O198     O        0.33123    0.27777    0.33557    1.000
    O199     O        0.49453    0.44017    0.33007    1.000
    C100     C        0.44163    0.37917    0.22097    1.000
    O200     O        0.62123    0.21727    0.34587    1.000
    O201     O        0.47933    0.30027    0.30147    1.000
    N15      N        0.50923    0.50517    0.25147    1.000
    O202     O        0.38543    0.24687    0.19617    1.000
    O203     O        0.28693    0.37437    0.30037    1.000
    O204     O        0.48803    0.09637    0.37267    1.000
    O205     O        0.50193    0.15427    0.30037    1.000
    O206     O        0.71023    0.43737    0.39227    1.000
    O207     O        0.60343    0.37677    0.26217    1.000
    O208     O        0.50383    0.37057    0.18117    1.000
    C101     C        0.27953    0.33187    0.27817    1.000
    O209     O        0.20983    0.26087    0.27107    1.000
    C102     C        0.44413    0.32817    0.19757    1.000
    O210     O        0.45453    0.33577    0.37477    1.000
    C103     C        0.51493    0.46607    0.22897    1.000
    H43      H        0.56933    0.49827    0.21837    1.000
    C104     C        0.43793    0.46447    0.26597    1.000
    H44      H        0.44653    0.50317    0.28077    1.000
    C105     C        0.36483    0.33717    0.23847    1.000
    H45      H        0.31463    0.27917    0.23437    1.000
    W61      W        0.52541    0.88590    0.67242    1.000
    W62      W        0.29141    0.85226    0.66837    1.000
    W63      W        0.39246    0.80079    0.61161    1.000
    W64      W        0.48007    0.74832    0.72288    1.000
    Lu16     Lu       0.77256    0.11574    0.67278    1.000
    C106     C        0.68350    0.96910    0.59430    1.000
    O211     O        0.42230    0.89470    0.67650    1.000
    O212     O        0.61320    0.00210    0.66890    1.000
    O213     O        0.61230    0.83880    0.66340    1.000
    C107     C        0.60420    0.89170    0.55430    1.000
    O214     O        0.26270    0.71210    0.67920    1.000
    O215     O        0.48760    0.85400    0.63480    1.000
    N16      N        0.66260    0.82410    0.58480    1.000
    O216     O        0.52810    0.94790    0.52950    1.000
    O217     O        0.75410    0.04640    0.63370    1.000
    O218     O        0.27500    0.84530    0.70600    1.000
    O219     O        0.31900    0.83140    0.63370    1.000
    O220     O        0.39380    0.62310    0.72560    1.000
    O221     O        0.44000    0.72990    0.59550    1.000
    O222     O        0.53340    0.82950    0.51450    1.000
    C108     C        0.71900    0.05380    0.61150    1.000
    O223     O        0.71770    0.12350    0.60440    1.000
    C109     C        0.55070    0.88920    0.53090    1.000
    O224     O        0.54790    0.87880    0.70810    1.000
    C110     C        0.61780    0.81840    0.56230    1.000
    H46      H        0.59560    0.76400    0.55170    1.000
    C111     C        0.69320    0.89540    0.59930    1.000
    H47      H        0.72330    0.88680    0.61410    1.000
    C112     C        0.63900    0.96850    0.57180    1.000
    H48      H        0.63120    0.01870    0.56770    1.000
    W65      W        0.19208    0.21923    0.00575    1.000
    W66      W        0.95808    0.18559    0.00170    1.000
    W67      W        0.05913    0.13412    0.94494    1.000
    W68      W        0.14674    0.08165    0.05621    1.000
    Lu17     Lu       0.43923    0.44907    0.00612    1.000
    C113     C        0.35017    0.30243    0.92763    1.000
    O225     O        0.08897    0.22803    0.00983    1.000
    O226     O        0.27987    0.33543    0.00223    1.000
    O227     O        0.27897    0.17213    0.99673    1.000
    C114     C        0.27087    0.22503    0.88763    1.000
    O228     O        0.92937    0.04543    0.01253    1.000
    O229     O        0.15427    0.18733    0.96813    1.000
    N17      N        0.32927    0.15743    0.91813    1.000
    O230     O        0.19477    0.28123    0.86283    1.000
    O231     O        0.42077    0.37973    0.96703    1.000
    O232     O        0.94167    0.17863    0.03933    1.000
    O233     O        0.98567    0.16473    0.96703    1.000
    O234     O        0.06047    0.95643    0.05893    1.000
    O235     O        0.10667    0.06323    0.92883    1.000
    O236     O        0.20007    0.16283    0.84783    1.000
    C115     C        0.38567    0.38713    0.94483    1.000
    O237     O        0.38437    0.45683    0.93773    1.000
    C116     C        0.21737    0.22253    0.86423    1.000
    O238     O        0.21457    0.21213    0.04143    1.000
    C117     C        0.28447    0.15173    0.89563    1.000
    H49      H        0.26227    0.09733    0.88503    1.000
    C118     C        0.35987    0.22873    0.93263    1.000
    H50      H        0.38997    0.22013    0.94743    1.000
    C119     C        0.30567    0.30183    0.90513    1.000
    H51      H        0.29787    0.35203    0.90103    1.000
    W69      W        0.85874    0.55257    0.33909    1.000
    W70      W        0.62474    0.51893    0.33504    1.000
    W71      W        0.72579    0.46746    0.27828    1.000
    W72      W        0.81340    0.41499    0.38955    1.000
    Lu18     Lu       0.10589    0.78241    0.33945    1.000
    C120     C        0.01683    0.63577    0.26097    1.000
    O239     O        0.75563    0.56137    0.34317    1.000
    O240     O        0.94653    0.66877    0.33557    1.000
    O241     O        0.94563    0.50547    0.33007    1.000
    C121     C        0.93753    0.55837    0.22097    1.000
    O242     O        0.59603    0.37877    0.34587    1.000
    O243     O        0.82093    0.52067    0.30147    1.000
    N18      N        0.99593    0.49077    0.25147    1.000
    O244     O        0.86143    0.61457    0.19617    1.000
    O245     O        0.08743    0.71307    0.30037    1.000
    O246     O        0.60833    0.51197    0.37267    1.000
    O247     O        0.65233    0.49807    0.30037    1.000
    O248     O        0.72713    0.28977    0.39227    1.000
    O249     O        0.77333    0.39657    0.26217    1.000
    O250     O        0.86673    0.49617    0.18117    1.000
    C122     C        0.05233    0.72047    0.27817    1.000
    O251     O        0.05103    0.79017    0.27107    1.000
    C123     C        0.88403    0.55587    0.19757    1.000
    O252     O        0.88123    0.54547    0.37477    1.000
    C124     C        0.95113    0.48507    0.22897    1.000
    H52      H        0.92893    0.43067    0.21837    1.000
    C125     C        0.02653    0.56207    0.26597    1.000
    H53      H        0.05663    0.55347    0.28077    1.000
    C126     C        0.97233    0.63517    0.23847    1.000
    H54      H        0.96453    0.68537    0.23437    1.000
    O253     O        0.33333    0.66667    0.13370    1.000
    O254     O        0.00000    0.00000    0.46703    1.000
    O255     O        0.66667    0.33333    0.80037    1.000
    O256     O        0.33333    0.66667    0.63370    1.000
    O257     O        0.00000    0.00000    0.96703    1.000
    O258     O        0.66667    0.33333    0.30037    1.000
