# CIF file generated by openbabel 3.1.0, see https://openbabel.org
data_I
_chemical_name_common 'image0'
_cell_length_a 14.7953
_cell_length_b 27.3634
_cell_length_c 8.3446
_cell_angle_alpha 90
_cell_angle_beta 90
_cell_angle_gamma 90
_space_group_name_H-M_alt 'P 1'
_space_group_name_Hall 'P 1'
loop_
    _symmetry_equiv_pos_as_xyz
    x,y,z
loop_
    _atom_site_label
    _atom_site_type_symbol
    _atom_site_fract_x
    _atom_site_fract_y
    _atom_site_fract_z
    _atom_site_occupancy
    P1       P        0.09770    0.78324    0.66700    1.000
    P2       P        0.90590    0.66998    0.66310    1.000
    P3       P        0.77990    0.86111    0.65630    1.000
    P4       P        0.10220    0.94771    0.65630    1.000
    Al1      Al       0.90670    0.77968    0.78780    1.000
    Al2      Al       0.10010    0.67376    0.78380    1.000
    Al3      Al       0.90690    0.94522    0.77770    1.000
    Al4      Al       0.22920    0.86639    0.78380    1.000
    O1       O        0.11470    0.73362    0.74000    1.000
    O2       O        0.00880    0.80303    0.72930    1.000
    O3       O        0.17570    0.81536    0.71840    1.000
    O4       O        0.10020    0.78070    0.48910    1.000
    O5       O        0.89310    0.72135    0.72180    1.000
    O6       O        0.84010    0.63490    0.74320    1.000
    O7       O        0.89730    0.66701    0.48540    1.000
    O8       O        0.00040    0.65230    0.70780    1.000
    O9       O        0.68150    0.86265    0.70240    1.000
    O10      O        0.82250    0.81291    0.70010    1.000
    O11      O        0.78770    0.87180    0.48240    1.000
    O12      O        0.82670    0.90280    0.73980    1.000
    O13      O        0.01410    0.92835    0.72260    1.000
    O14      O        0.12190    0.99909    0.70770    1.000
    O15      O        0.18300    0.91617    0.69290    1.000
    O16      O        0.09090    0.95125    0.47990    1.000
    P5       P        0.59770    0.28324    0.16700    1.000
    P6       P        0.40590    0.16998    0.16310    1.000
    P7       P        0.27990    0.36111    0.15630    1.000
    P8       P        0.60220    0.44771    0.15630    1.000
    Al5      Al       0.40670    0.27968    0.28780    1.000
    Al6      Al       0.60010    0.17376    0.28380    1.000
    Al7      Al       0.40690    0.44522    0.27770    1.000
    Al8      Al       0.72920    0.36639    0.28380    1.000
    O17      O        0.61470    0.23362    0.24000    1.000
    O18      O        0.50880    0.30303    0.22930    1.000
    O19      O        0.67570    0.31536    0.21840    1.000
    O20      O        0.60020    0.28070    0.98910    1.000
    O21      O        0.39310    0.22135    0.22180    1.000
    O22      O        0.34010    0.13490    0.24320    1.000
    O23      O        0.39730    0.16701    0.98540    1.000
    O24      O        0.50040    0.15230    0.20780    1.000
    O25      O        0.18150    0.36265    0.20240    1.000
    O26      O        0.32250    0.31291    0.20010    1.000
    O27      O        0.28770    0.37180    0.98240    1.000
    O28      O        0.32670    0.40280    0.23980    1.000
    O29      O        0.51410    0.42835    0.22260    1.000
    O30      O        0.62190    0.49909    0.20770    1.000
    O31      O        0.68300    0.41617    0.19290    1.000
    O32      O        0.59090    0.45125    0.97990    1.000
    P9       P        0.90230    0.21676    0.66700    1.000
    P10      P        0.09410    0.33002    0.66310    1.000
    P11      P        0.22010    0.13889    0.65630    1.000
    P12      P        0.89780    0.05229    0.65630    1.000
    Al9      Al       0.09330    0.22032    0.78780    1.000
    Al10     Al       0.89990    0.32624    0.78380    1.000
    Al11     Al       0.09310    0.05478    0.77770    1.000
    Al12     Al       0.77080    0.13361    0.78380    1.000
    O33      O        0.88530    0.26638    0.74000    1.000
    O34      O        0.99120    0.19697    0.72930    1.000
    O35      O        0.82430    0.18464    0.71840    1.000
    O36      O        0.89980    0.21930    0.48910    1.000
    O37      O        0.10690    0.27865    0.72180    1.000
    O38      O        0.15990    0.36510    0.74320    1.000
    O39      O        0.10270    0.33299    0.48540    1.000
    O40      O        0.99960    0.34770    0.70780    1.000
    O41      O        0.31850    0.13735    0.70240    1.000
    O42      O        0.17750    0.18709    0.70010    1.000
    O43      O        0.21230    0.12820    0.48240    1.000
    O44      O        0.17330    0.09720    0.73980    1.000
    O45      O        0.98590    0.07165    0.72260    1.000
    O46      O        0.87810    0.00091    0.70770    1.000
    O47      O        0.81700    0.08383    0.69290    1.000
    O48      O        0.90910    0.04875    0.47990    1.000
    P13      P        0.40230    0.71676    0.16700    1.000
    P14      P        0.59410    0.83002    0.16310    1.000
    P15      P        0.72010    0.63889    0.15630    1.000
    P16      P        0.39780    0.55229    0.15630    1.000
    Al13     Al       0.59330    0.72032    0.28780    1.000
    Al14     Al       0.39990    0.82624    0.28380    1.000
    Al15     Al       0.59310    0.55478    0.27770    1.000
    Al16     Al       0.27080    0.63361    0.28380    1.000
    O49      O        0.38530    0.76638    0.24000    1.000
    O50      O        0.49120    0.69697    0.22930    1.000
    O51      O        0.32430    0.68464    0.21840    1.000
    O52      O        0.39980    0.71930    0.98910    1.000
    O53      O        0.60690    0.77865    0.22180    1.000
    O54      O        0.65990    0.86510    0.24320    1.000
    O55      O        0.60270    0.83299    0.98540    1.000
    O56      O        0.49960    0.84770    0.20780    1.000
    O57      O        0.81850    0.63735    0.20240    1.000
    O58      O        0.67750    0.68709    0.20010    1.000
    O59      O        0.71230    0.62820    0.98240    1.000
    O60      O        0.67330    0.59720    0.23980    1.000
    O61      O        0.48590    0.57165    0.22260    1.000
    O62      O        0.37810    0.50091    0.20770    1.000
    O63      O        0.31700    0.58383    0.19290    1.000
    O64      O        0.40910    0.54875    0.97990    1.000
    P17      P        0.59770    0.71676    0.66700    1.000
    P18      P        0.40590    0.83002    0.66310    1.000
    P19      P        0.27990    0.63889    0.65630    1.000
    P20      P        0.60220    0.55229    0.65630    1.000
    Al17     Al       0.40670    0.72032    0.78780    1.000
    Al18     Al       0.60010    0.82624    0.78380    1.000
    Al19     Al       0.40690    0.55478    0.77770    1.000
    Al20     Al       0.72920    0.63361    0.78380    1.000
    O65      O        0.61470    0.76638    0.74000    1.000
    O66      O        0.50880    0.69697    0.72930    1.000
    O67      O        0.67570    0.68464    0.71840    1.000
    O68      O        0.60020    0.71930    0.48910    1.000
    O69      O        0.39310    0.77865    0.72180    1.000
    O70      O        0.34010    0.86510    0.74320    1.000
    O71      O        0.39730    0.83299    0.48540    1.000
    O72      O        0.50040    0.84770    0.70780    1.000
    O73      O        0.18150    0.63735    0.70240    1.000
    O74      O        0.32250    0.68709    0.70010    1.000
    O75      O        0.28770    0.62820    0.48240    1.000
    O76      O        0.32670    0.59720    0.73980    1.000
    O77      O        0.51410    0.57165    0.72260    1.000
    O78      O        0.62190    0.50091    0.70770    1.000
    O79      O        0.68300    0.58383    0.69290    1.000
    O80      O        0.59090    0.54875    0.47990    1.000
    P21      P        0.09770    0.21676    0.16700    1.000
    P22      P        0.90590    0.33002    0.16310    1.000
    P23      P        0.77990    0.13889    0.15630    1.000
    P24      P        0.10220    0.05229    0.15630    1.000
    Al21     Al       0.90670    0.22032    0.28780    1.000
    Al22     Al       0.10010    0.32624    0.28380    1.000
    Al23     Al       0.90690    0.05478    0.27770    1.000
    Al24     Al       0.22920    0.13361    0.28380    1.000
    O81      O        0.11470    0.26638    0.24000    1.000
    O82      O        0.00880    0.19697    0.22930    1.000
    O83      O        0.17570    0.18464    0.21840    1.000
    O84      O        0.10020    0.21930    0.98910    1.000
    O85      O        0.89310    0.27865    0.22180    1.000
    O86      O        0.84010    0.36510    0.24320    1.000
    O87      O        0.89730    0.33299    0.98540    1.000
    O88      O        0.00040    0.34770    0.20780    1.000
    O89      O        0.68150    0.13735    0.20240    1.000
    O90      O        0.82250    0.18709    0.20010    1.000
    O91      O        0.78770    0.12820    0.98240    1.000
    O92      O        0.82670    0.09720    0.23980    1.000
    O93      O        0.01410    0.07165    0.22260    1.000
    O94      O        0.12190    0.00091    0.20770    1.000
    O95      O        0.18300    0.08383    0.19290    1.000
    O96      O        0.09090    0.04875    0.97990    1.000
    P25      P        0.40230    0.28324    0.66700    1.000
    P26      P        0.59410    0.16998    0.66310    1.000
    P27      P        0.72010    0.36111    0.65630    1.000
    P28      P        0.39780    0.44771    0.65630    1.000
    Al25     Al       0.59330    0.27968    0.78780    1.000
    Al26     Al       0.39990    0.17376    0.78380    1.000
    Al27     Al       0.59310    0.44522    0.77770    1.000
    Al28     Al       0.27080    0.36639    0.78380    1.000
    O97      O        0.38530    0.23362    0.74000    1.000
    O98      O        0.49120    0.30303    0.72930    1.000
    O99      O        0.32430    0.31536    0.71840    1.000
    O100     O        0.39980    0.28070    0.48910    1.000
    O101     O        0.60690    0.22135    0.72180    1.000
    O102     O        0.65990    0.13490    0.74320    1.000
    O103     O        0.60270    0.16701    0.48540    1.000
    O104     O        0.49960    0.15230    0.70780    1.000
    O105     O        0.81850    0.36265    0.70240    1.000
    O106     O        0.67750    0.31291    0.70010    1.000
    O107     O        0.71230    0.37180    0.48240    1.000
    O108     O        0.67330    0.40280    0.73980    1.000
    O109     O        0.48590    0.42835    0.72260    1.000
    O110     O        0.37810    0.49909    0.70770    1.000
    O111     O        0.31700    0.41617    0.69290    1.000
    O112     O        0.40910    0.45125    0.47990    1.000
    P29      P        0.90230    0.78324    0.16700    1.000
    P30      P        0.09410    0.66998    0.16310    1.000
    P31      P        0.22010    0.86111    0.15630    1.000
    P32      P        0.89780    0.94771    0.15630    1.000
    Al29     Al       0.09330    0.77968    0.28780    1.000
    Al30     Al       0.89990    0.67376    0.28380    1.000
    Al31     Al       0.09310    0.94522    0.27770    1.000
    Al32     Al       0.77080    0.86639    0.28380    1.000
    O113     O        0.88530    0.73362    0.24000    1.000
    O114     O        0.99120    0.80303    0.22930    1.000
    O115     O        0.82430    0.81536    0.21840    1.000
    O116     O        0.89980    0.78070    0.98910    1.000
    O117     O        0.10690    0.72135    0.22180    1.000
    O118     O        0.15990    0.63490    0.24320    1.000
    O119     O        0.10270    0.66701    0.98540    1.000
    O120     O        0.99960    0.65230    0.20780    1.000
    O121     O        0.31850    0.86265    0.20240    1.000
    O122     O        0.17750    0.81291    0.20010    1.000
    O123     O        0.21230    0.87180    0.98240    1.000
    O124     O        0.17330    0.90280    0.23980    1.000
    O125     O        0.98590    0.92835    0.22260    1.000
    O126     O        0.87810    0.99909    0.20770    1.000
    O127     O        0.81700    0.91617    0.19290    1.000
    O128     O        0.90910    0.95125    0.97990    1.000
