# CIF file generated by openbabel 3.1.0, see https://openbabel.org
data_I
_chemical_name_common 'image0'
_cell_length_a 6.6118
_cell_length_b 7.5662
_cell_length_c 9.2756
_cell_angle_alpha 90
_cell_angle_beta 99.8267
_cell_angle_gamma 90
_space_group_name_H-M_alt 'P 1'
_space_group_name_Hall 'P 1'
loop_
    _symmetry_equiv_pos_as_xyz
    x,y,z
loop_
    _atom_site_label
    _atom_site_type_symbol
    _atom_site_fract_x
    _atom_site_fract_y
    _atom_site_fract_z
    _atom_site_occupancy
    Er1      Er       0.16154    0.27135    0.29299    1.000
    O1       O        0.38760    0.34980    0.52020    1.000
    O2       O        0.62470    0.52190    0.65360    1.000
    O3       O        0.47350    0.33790    0.22420    1.000
    O4       O        0.80860    0.36310    0.23800    1.000
    O5       O        0.11500    0.36970    0.04270    1.000
    O6       O        0.00190    0.53330    0.84710    1.000
    O7       O        0.13460    0.57330    0.33430    1.000
    O8       O        0.98250    0.63310    0.52510    1.000
    C1       C        0.52830    0.46610    0.53630    1.000
    H1       H        0.56230    0.51420    0.45130    1.000
    C2       C        0.65170    0.27680    0.24220    1.000
    H2       H        0.66720    0.15620    0.26020    1.000
    C3       C        0.01260    0.49220    0.97920    1.000
    H3       H        0.93660    0.56000    0.03430    1.000
    C4       C        0.07000    0.67540    0.42160    1.000
    H4       H        0.08920    0.79560    0.40790    1.000
    Er2      Er       0.83846    0.77135    0.70701    1.000
    O9       O        0.61240    0.84980    0.47980    1.000
    O10      O        0.37530    0.02190    0.34640    1.000
    O11      O        0.52650    0.83790    0.77580    1.000
    O12      O        0.19140    0.86310    0.76200    1.000
    O13      O        0.88500    0.86970    0.95730    1.000
    O14      O        0.99810    0.03330    0.15290    1.000
    O15      O        0.86540    0.07330    0.66570    1.000
    O16      O        0.01750    0.13310    0.47490    1.000
    C5       C        0.47170    0.96610    0.46370    1.000
    H5       H        0.43770    0.01420    0.54870    1.000
    C6       C        0.34830    0.77680    0.75780    1.000
    H6       H        0.33280    0.65620    0.73980    1.000
    C7       C        0.98740    0.99220    0.02080    1.000
    H7       H        0.06340    0.06000    0.96570    1.000
    C8       C        0.93000    0.17540    0.57840    1.000
    H8       H        0.91080    0.29560    0.59210    1.000
