# CIF file generated by openbabel 3.1.0, see https://openbabel.org
data_I
_chemical_name_common 'image0'
_cell_length_a 8.9864
_cell_length_b 27.7885
_cell_length_c 10.953
_cell_angle_alpha 90
_cell_angle_beta 99.196
_cell_angle_gamma 90
_space_group_name_H-M_alt 'P 1'
_space_group_name_Hall 'P 1'
loop_
    _symmetry_equiv_pos_as_xyz
    x,y,z
loop_
    _atom_site_label
    _atom_site_type_symbol
    _atom_site_fract_x
    _atom_site_fract_y
    _atom_site_fract_z
    _atom_site_occupancy
    Mo1      Mo       0.58569    0.64903    0.87405    1.000
    O1       O        0.66937    0.18396    0.41340    1.000
    O2       O        0.43090    0.61583    0.90657    1.000
    N1       N        0.37160    0.57232    0.13399    1.000
    C1       C        0.33800    0.52701    0.16040    1.000
    H1       H        0.25140    0.51330    0.11620    1.000
    C2       C        0.42470    0.49932    0.24960    1.000
    H2       H        0.39770    0.46760    0.26210    1.000
    C3       C        0.55240    0.51900    0.32070    1.000
    C4       C        0.58580    0.56648    0.29510    1.000
    H3       H        0.66910    0.58160    0.34060    1.000
    C5       C        0.49530    0.59108    0.20240    1.000
    H4       H        0.52140    0.62260    0.18620    1.000
    C6       C        0.65370    0.49093    0.41620    1.000
    C7       C        0.65020    0.44084    0.41420    1.000
    H5       H        0.58140    0.42470    0.35580    1.000
    C8       C        0.72120    0.33597    0.38930    1.000
    H6       H        0.70470    0.35250    0.31460    1.000
    C9       C        0.71670    0.28610    0.38940    1.000
    H7       H        0.69140    0.26950    0.31520    1.000
    Mo2      Mo       0.08569    0.14903    0.37405    1.000
    O3       O        0.16937    0.68396    0.91340    1.000
    O4       O        0.93090    0.11583    0.40657    1.000
    N2       N        0.87160    0.07232    0.63399    1.000
    C10      C        0.83800    0.02701    0.66040    1.000
    H8       H        0.75140    0.01330    0.61620    1.000
    C11      C        0.92470    0.99932    0.74960    1.000
    H9       H        0.89770    0.96760    0.76210    1.000
    C12      C        0.05240    0.01900    0.82070    1.000
    C13      C        0.08580    0.06648    0.79510    1.000
    H10      H        0.16910    0.08160    0.84060    1.000
    C14      C        0.99530    0.09108    0.70240    1.000
    H11      H        0.02140    0.12260    0.68620    1.000
    C15      C        0.15370    0.99093    0.91620    1.000
    C16      C        0.15020    0.94084    0.91420    1.000
    H12      H        0.08140    0.92470    0.85580    1.000
    C17      C        0.22120    0.83597    0.88930    1.000
    H13      H        0.20470    0.85250    0.81460    1.000
    C18      C        0.21670    0.78610    0.88940    1.000
    H14      H        0.19140    0.76950    0.81520    1.000
    Mo3      Mo       0.91431    0.64903    0.12595    1.000
    O5       O        0.83063    0.18396    0.58660    1.000
    O6       O        0.06910    0.61583    0.09343    1.000
    N3       N        0.12840    0.57232    0.86601    1.000
    C19      C        0.16200    0.52701    0.83960    1.000
    H15      H        0.24860    0.51330    0.88380    1.000
    C20      C        0.07530    0.49932    0.75040    1.000
    H16      H        0.10230    0.46760    0.73790    1.000
    C21      C        0.94760    0.51900    0.67930    1.000
    C22      C        0.91420    0.56648    0.70490    1.000
    H17      H        0.83090    0.58160    0.65940    1.000
    C23      C        0.00470    0.59108    0.79760    1.000
    H18      H        0.97860    0.62260    0.81380    1.000
    C24      C        0.84630    0.49093    0.58380    1.000
    C25      C        0.84980    0.44084    0.58580    1.000
    H19      H        0.91860    0.42470    0.64420    1.000
    C26      C        0.77880    0.33597    0.61070    1.000
    H20      H        0.79530    0.35250    0.68540    1.000
    C27      C        0.78330    0.28610    0.61060    1.000
    H21      H        0.80860    0.26950    0.68480    1.000
    Mo4      Mo       0.41431    0.14903    0.62595    1.000
    O7       O        0.33063    0.68396    0.08660    1.000
    O8       O        0.56910    0.11583    0.59343    1.000
    N4       N        0.62840    0.07232    0.36601    1.000
    C28      C        0.66200    0.02701    0.33960    1.000
    H22      H        0.74860    0.01330    0.38380    1.000
    C29      C        0.57530    0.99932    0.25040    1.000
    H23      H        0.60230    0.96760    0.23790    1.000
    C30      C        0.44760    0.01900    0.17930    1.000
    C31      C        0.41420    0.06648    0.20490    1.000
    H24      H        0.33090    0.08160    0.15940    1.000
    C32      C        0.50470    0.09108    0.29760    1.000
    H25      H        0.47860    0.12260    0.31380    1.000
    C33      C        0.34630    0.99093    0.08380    1.000
    C34      C        0.34980    0.94084    0.08580    1.000
    H26      H        0.41860    0.92470    0.14420    1.000
    C35      C        0.27880    0.83597    0.11070    1.000
    H27      H        0.29530    0.85250    0.18540    1.000
    C36      C        0.28330    0.78610    0.11060    1.000
    H28      H        0.30860    0.76950    0.18480    1.000
    Ni1      Ni       0.25000    0.61722    0.00000    1.000
    Ni2      Ni       0.75000    0.11722    0.50000    1.000
    O9       O        0.75000    0.63799    0.00000    1.000
    O10      O        0.25000    0.13799    0.50000    1.000
    N5       N        0.75000    0.51590    0.50000    1.000
    C37      C        0.75000    0.41499    0.50000    1.000
    C38      C        0.75000    0.36161    0.50000    1.000
    C39      C        0.75000    0.26070    0.50000    1.000
    C40      C        0.75000    0.20669    0.50000    1.000
    N6       N        0.25000    0.01590    0.00000    1.000
    C41      C        0.25000    0.91499    0.00000    1.000
    C42      C        0.25000    0.86161    0.00000    1.000
    C43      C        0.25000    0.76070    0.00000    1.000
    C44      C        0.25000    0.70669    0.00000    1.000
    Mo5      Mo       0.41431    0.35097    0.12595    1.000
    O11      O        0.33063    0.81604    0.58660    1.000
    O12      O        0.56910    0.38417    0.09343    1.000
    N7       N        0.62840    0.42768    0.86601    1.000
    C45      C        0.66200    0.47299    0.83960    1.000
    H29      H        0.74860    0.48670    0.88380    1.000
    C46      C        0.57530    0.50068    0.75040    1.000
    H30      H        0.60230    0.53240    0.73790    1.000
    C47      C        0.44760    0.48100    0.67930    1.000
    C48      C        0.41420    0.43352    0.70490    1.000
    H31      H        0.33090    0.41840    0.65940    1.000
    C49      C        0.50470    0.40892    0.79760    1.000
    H32      H        0.47860    0.37740    0.81380    1.000
    C50      C        0.34630    0.50907    0.58380    1.000
    C51      C        0.34980    0.55916    0.58580    1.000
    H33      H        0.41860    0.57530    0.64420    1.000
    C52      C        0.27880    0.66403    0.61070    1.000
    H34      H        0.29530    0.64750    0.68540    1.000
    C53      C        0.28330    0.71390    0.61060    1.000
    H35      H        0.30860    0.73050    0.68480    1.000
    Mo6      Mo       0.91431    0.85097    0.62595    1.000
    O13      O        0.83063    0.31604    0.08660    1.000
    O14      O        0.06910    0.88417    0.59343    1.000
    N8       N        0.12840    0.92768    0.36601    1.000
    C54      C        0.16200    0.97299    0.33960    1.000
    H36      H        0.24860    0.98670    0.38380    1.000
    C55      C        0.07530    0.00068    0.25040    1.000
    H37      H        0.10230    0.03240    0.23790    1.000
    C56      C        0.94760    0.98100    0.17930    1.000
    C57      C        0.91420    0.93352    0.20490    1.000
    H38      H        0.83090    0.91840    0.15940    1.000
    C58      C        0.00470    0.90892    0.29760    1.000
    H39      H        0.97860    0.87740    0.31380    1.000
    C59      C        0.84630    0.00907    0.08380    1.000
    C60      C        0.84980    0.05916    0.08580    1.000
    H40      H        0.91860    0.07530    0.14420    1.000
    C61      C        0.77880    0.16403    0.11070    1.000
    H41      H        0.79530    0.14750    0.18540    1.000
    C62      C        0.78330    0.21390    0.11060    1.000
    H42      H        0.80860    0.23050    0.18480    1.000
    Mo7      Mo       0.08569    0.35097    0.87405    1.000
    O15      O        0.16937    0.81604    0.41340    1.000
    O16      O        0.93090    0.38417    0.90657    1.000
    N9       N        0.87160    0.42768    0.13399    1.000
    C63      C        0.83800    0.47299    0.16040    1.000
    H43      H        0.75140    0.48670    0.11620    1.000
    C64      C        0.92470    0.50068    0.24960    1.000
    H44      H        0.89770    0.53240    0.26210    1.000
    C65      C        0.05240    0.48100    0.32070    1.000
    C66      C        0.08580    0.43352    0.29510    1.000
    H45      H        0.16910    0.41840    0.34060    1.000
    C67      C        0.99530    0.40892    0.20240    1.000
    H46      H        0.02140    0.37740    0.18620    1.000
    C68      C        0.15370    0.50907    0.41620    1.000
    C69      C        0.15020    0.55916    0.41420    1.000
    H47      H        0.08140    0.57530    0.35580    1.000
    C70      C        0.22120    0.66403    0.38930    1.000
    H48      H        0.20470    0.64750    0.31460    1.000
    C71      C        0.21670    0.71390    0.38940    1.000
    H49      H        0.19140    0.73050    0.31520    1.000
    Mo8      Mo       0.58569    0.85097    0.37405    1.000
    O17      O        0.66937    0.31604    0.91340    1.000
    O18      O        0.43090    0.88417    0.40657    1.000
    N10      N        0.37160    0.92768    0.63399    1.000
    C72      C        0.33800    0.97299    0.66040    1.000
    H50      H        0.25140    0.98670    0.61620    1.000
    C73      C        0.42470    0.00068    0.74960    1.000
    H51      H        0.39770    0.03240    0.76210    1.000
    C74      C        0.55240    0.98100    0.82070    1.000
    C75      C        0.58580    0.93352    0.79510    1.000
    H52      H        0.66910    0.91840    0.84060    1.000
    C76      C        0.49530    0.90892    0.70240    1.000
    H53      H        0.52140    0.87740    0.68620    1.000
    C77      C        0.65370    0.00907    0.91620    1.000
    C78      C        0.65020    0.05916    0.91420    1.000
    H54      H        0.58140    0.07530    0.85580    1.000
    C79      C        0.72120    0.16403    0.88930    1.000
    H55      H        0.70470    0.14750    0.81460    1.000
    C80      C        0.71670    0.21390    0.88940    1.000
    H56      H        0.69140    0.23050    0.81520    1.000
    Ni3      Ni       0.75000    0.38278    0.00000    1.000
    Ni4      Ni       0.25000    0.88278    0.50000    1.000
    O19      O        0.25000    0.36201    0.00000    1.000
    O20      O        0.75000    0.86201    0.50000    1.000
    N11      N        0.25000    0.48410    0.50000    1.000
    C81      C        0.25000    0.58501    0.50000    1.000
    C82      C        0.25000    0.63839    0.50000    1.000
    C83      C        0.25000    0.73930    0.50000    1.000
    C84      C        0.25000    0.79331    0.50000    1.000
    N12      N        0.75000    0.98410    0.00000    1.000
    C85      C        0.75000    0.08501    0.00000    1.000
    C86      C        0.75000    0.13839    0.00000    1.000
    C87      C        0.75000    0.23930    0.00000    1.000
    C88      C        0.75000    0.29331    0.00000    1.000
