# CIF file generated by openbabel 3.1.0, see https://openbabel.org
data_I
_chemical_name_common 'image0'
_cell_length_a 9.987
_cell_length_b 12.275
_cell_length_c 17.462
_cell_angle_alpha 90
_cell_angle_beta 102.8
_cell_angle_gamma 90
_space_group_name_H-M_alt 'P 1'
_space_group_name_Hall 'P 1'
loop_
    _symmetry_equiv_pos_as_xyz
    x,y,z
loop_
    _atom_site_label
    _atom_site_type_symbol
    _atom_site_fract_x
    _atom_site_fract_y
    _atom_site_fract_z
    _atom_site_occupancy
    O1       O        0.90970    0.25870    0.71670    1.000
    O2       O        0.81680    0.41410    0.62980    1.000
    O3       O        0.35970    0.11870    0.64500    1.000
    O4       O        0.94830    0.98820    0.90530    1.000
    O5       O        0.17920    0.94920    0.87630    1.000
    O6       O        0.12020    0.14530    0.66500    1.000
    O7       O        0.68560    0.02430    0.48090    1.000
    O8       O        0.15410    0.09860    0.96870    1.000
    O9       O        0.59390    0.04920    0.60280    1.000
    O10      O        0.04940    0.12250    0.82690    1.000
    O11      O        0.30700    0.07980    0.77720    1.000
    O12      O        0.94270    0.45090    0.76640    1.000
    O13      O        0.84690    0.06950    0.60800    1.000
    O14      O        0.06840    0.38750    0.66400    1.000
    O15      O        0.31480    0.27140    0.72740    1.000
    O16      O        0.68000    0.21020    0.53950    1.000
    Fe1      Fe       0.24580    0.92420    0.77950    1.000
    Fe2      Fe       0.64960    0.35850    0.57260    1.000
    Fe3      Fe       0.56500    0.02390    0.37230    1.000
    Fe4      Fe       0.96480    0.10830    0.71070    1.000
    P1       P        0.70110    0.08760    0.55890    1.000
    P2       P        0.08330    0.03940    0.89370    1.000
    P3       P        0.27290    0.15380    0.70420    1.000
    P4       P        0.93810    0.37550    0.69560    1.000
    F1       F        0.04980    0.95800    0.72250    1.000
    F2       F        0.71260    0.09020    0.32650    1.000
    O17      O        0.59030    0.75870    0.78330    1.000
    O18      O        0.68320    0.91410    0.87020    1.000
    O19      O        0.14030    0.61870    0.85500    1.000
    O20      O        0.55170    0.48820    0.59470    1.000
    O21      O        0.32080    0.44920    0.62370    1.000
    O22      O        0.37980    0.64530    0.83500    1.000
    O23      O        0.81440    0.52430    0.01910    1.000
    O24      O        0.34590    0.59860    0.53130    1.000
    O25      O        0.90610    0.54920    0.89720    1.000
    O26      O        0.45060    0.62250    0.67310    1.000
    O27      O        0.19300    0.57980    0.72280    1.000
    O28      O        0.55730    0.95090    0.73360    1.000
    O29      O        0.65310    0.56950    0.89200    1.000
    O30      O        0.43160    0.88750    0.83600    1.000
    O31      O        0.18520    0.77140    0.77260    1.000
    O32      O        0.82000    0.71020    0.96050    1.000
    Fe5      Fe       0.25420    0.42420    0.72050    1.000
    Fe6      Fe       0.85040    0.85850    0.92740    1.000
    Fe7      Fe       0.93500    0.52390    0.12770    1.000
    Fe8      Fe       0.53520    0.60830    0.78930    1.000
    P5       P        0.79890    0.58760    0.94110    1.000
    P6       P        0.41670    0.53940    0.60630    1.000
    P7       P        0.22710    0.65380    0.79580    1.000
    P8       P        0.56190    0.87550    0.80440    1.000
    F3       F        0.45020    0.45800    0.77750    1.000
    F4       F        0.78740    0.59020    0.17350    1.000
    O33      O        0.09030    0.74130    0.28330    1.000
    O34      O        0.18320    0.58590    0.37020    1.000
    O35      O        0.64030    0.88130    0.35500    1.000
    O36      O        0.05170    0.01180    0.09470    1.000
    O37      O        0.82080    0.05080    0.12370    1.000
    O38      O        0.87980    0.85470    0.33500    1.000
    O39      O        0.31440    0.97570    0.51910    1.000
    O40      O        0.84590    0.90140    0.03130    1.000
    O41      O        0.40610    0.95080    0.39720    1.000
    O42      O        0.95060    0.87750    0.17310    1.000
    O43      O        0.69300    0.92020    0.22280    1.000
    O44      O        0.05730    0.54910    0.23360    1.000
    O45      O        0.15310    0.93050    0.39200    1.000
    O46      O        0.93160    0.61250    0.33600    1.000
    O47      O        0.68520    0.72860    0.27260    1.000
    O48      O        0.32000    0.78980    0.46050    1.000
    Fe9      Fe       0.75420    0.07580    0.22050    1.000
    Fe10     Fe       0.35040    0.64150    0.42740    1.000
    Fe11     Fe       0.43500    0.97610    0.62770    1.000
    Fe12     Fe       0.03520    0.89170    0.28930    1.000
    P9       P        0.29890    0.91240    0.44110    1.000
    P10      P        0.91670    0.96060    0.10630    1.000
    P11      P        0.72710    0.84620    0.29580    1.000
    P12      P        0.06190    0.62450    0.30440    1.000
    F5       F        0.95020    0.04200    0.27750    1.000
    F6       F        0.28740    0.90980    0.67350    1.000
    O49      O        0.40970    0.24130    0.21670    1.000
    O50      O        0.31680    0.08590    0.12980    1.000
    O51      O        0.85970    0.38130    0.14500    1.000
    O52      O        0.44830    0.51180    0.40530    1.000
    O53      O        0.67920    0.55080    0.37630    1.000
    O54      O        0.62020    0.35470    0.16500    1.000
    O55      O        0.18560    0.47570    0.98090    1.000
    O56      O        0.65410    0.40140    0.46870    1.000
    O57      O        0.09390    0.45080    0.10280    1.000
    O58      O        0.54940    0.37750    0.32690    1.000
    O59      O        0.80700    0.42020    0.27720    1.000
    O60      O        0.44270    0.04910    0.26640    1.000
    O61      O        0.34690    0.43050    0.10800    1.000
    O62      O        0.56840    0.11250    0.16400    1.000
    O63      O        0.81480    0.22860    0.22740    1.000
    O64      O        0.18000    0.28980    0.03950    1.000
    Fe13     Fe       0.74580    0.57580    0.27950    1.000
    Fe14     Fe       0.14960    0.14150    0.07260    1.000
    Fe15     Fe       0.06500    0.47610    0.87230    1.000
    Fe16     Fe       0.46480    0.39170    0.21070    1.000
    P13      P        0.20110    0.41240    0.05890    1.000
    P14      P        0.58330    0.46060    0.39370    1.000
    P15      P        0.77290    0.34620    0.20420    1.000
    P16      P        0.43810    0.12450    0.19560    1.000
    F7       F        0.54980    0.54200    0.22250    1.000
    F8       F        0.21260    0.40980    0.82650    1.000
