# CIF file generated by openbabel 3.1.0, see https://openbabel.org
data_I
_chemical_name_common 'XADFEP_clean'
_cell_length_a 9.9498
_cell_length_b 9.9498
_cell_length_c 14.376
_cell_angle_alpha 98.3515
_cell_angle_beta 98.3515
_cell_angle_gamma 107.677
_space_group_name_H-M_alt 'P 1'
_space_group_name_Hall 'P 1'
loop_
    _symmetry_equiv_pos_as_xyz
    x,y,z
loop_
    _atom_site_label
    _atom_site_type_symbol
    _atom_site_fract_x
    _atom_site_fract_y
    _atom_site_fract_z
    _atom_site_occupancy
    Ni1      Ni       0.00236    0.50008    0.25466    1.000
    Ni2      Ni       0.49992    0.99764    0.24534    1.000
    Ni3      Ni       0.99764    0.49992    0.74534    1.000
    Ni4      Ni       0.50008    0.00236    0.75466    1.000
    H1       H        0.27220    0.39960    0.26460    1.000
    H2       H        0.73620    0.60500    0.25570    1.000
    H3       H        0.84440    0.82740    0.37480    1.000
    H4       H        0.60040    0.72780    0.23540    1.000
    H5       H        0.39500    0.26380    0.24430    1.000
    H6       H        0.17260    0.15560    0.12520    1.000
    H7       H        0.72780    0.60040    0.73540    1.000
    H8       H        0.26380    0.39500    0.74430    1.000
    H9       H        0.15560    0.17260    0.62520    1.000
    H10      H        0.39960    0.27220    0.76460    1.000
    H11      H        0.60500    0.73620    0.75570    1.000
    H12      H        0.82740    0.84440    0.87480    1.000
    H13      H        0.23100    0.76900    0.25000    1.000
    H14      H        0.77220    0.22780    0.25000    1.000
    H15      H        0.76900    0.23100    0.75000    1.000
    H16      H        0.22780    0.77220    0.75000    1.000
    C1       C        0.31060    0.49440    0.25770    1.000
    C2       C        0.69390    0.50710    0.25320    1.000
    C3       C        0.03470    0.87670    0.46540    1.000
    C4       C        0.13050    0.98510    0.54160    1.000
    C5       C        0.90710    0.89710    0.42580    1.000
    C6       C        0.05900    0.74020    0.42780    1.000
    C7       C        0.27740    0.98100    0.58230    1.000
    C8       C        0.50560    0.68940    0.24230    1.000
    C9       C        0.49290    0.30610    0.24680    1.000
    C10      C        0.12330    0.96530    0.03460    1.000
    C11      C        0.01490    0.86950    0.95840    1.000
    C12      C        0.10290    0.09290    0.07420    1.000
    C13      C        0.25980    0.94100    0.07220    1.000
    C14      C        0.01900    0.72260    0.91770    1.000
    C15      C        0.68940    0.50560    0.74230    1.000
    C16      C        0.30610    0.49290    0.74680    1.000
    C17      C        0.96530    0.12330    0.53460    1.000
    C18      C        0.86950    0.01490    0.45840    1.000
    C19      C        0.09290    0.10290    0.57420    1.000
    C20      C        0.94100    0.25980    0.57220    1.000
    C21      C        0.72260    0.01900    0.41770    1.000
    C22      C        0.49440    0.31060    0.75770    1.000
    C23      C        0.50710    0.69390    0.75320    1.000
    C24      C        0.87670    0.03470    0.96540    1.000
    C25      C        0.98510    0.13050    0.04160    1.000
    C26      C        0.89710    0.90710    0.92580    1.000
    C27      C        0.74020    0.05900    0.92780    1.000
    C28      C        0.98100    0.27740    0.08230    1.000
    C29      C        0.45400    0.54600    0.25000    1.000
    C30      C        0.28890    0.71110    0.25000    1.000
    C31      C        0.54580    0.45420    0.25000    1.000
    C32      C        0.71430    0.28570    0.25000    1.000
    C33      C        0.54600    0.45400    0.75000    1.000
    C34      C        0.71110    0.28890    0.75000    1.000
    C35      C        0.45420    0.54580    0.75000    1.000
    C36      C        0.28570    0.71430    0.75000    1.000
    N1       N        0.22630    0.57530    0.25540    1.000
    N2       N        0.77800    0.42520    0.25280    1.000
    N3       N        0.42470    0.77370    0.24460    1.000
    N4       N        0.57480    0.22200    0.24720    1.000
    N5       N        0.77370    0.42470    0.74460    1.000
    N6       N        0.22200    0.57480    0.74720    1.000
    N7       N        0.57530    0.22630    0.75540    1.000
    N8       N        0.42520    0.77800    0.75280    1.000
    O1       O        0.01390    0.68850    0.33940    1.000
    O2       O        0.11860    0.68360    0.48640    1.000
    O3       O        0.30510    0.98430    0.67190    1.000
    O4       O        0.36340    0.98060    0.52960    1.000
    O5       O        0.31150    0.98610    0.16060    1.000
    O6       O        0.31640    0.88140    0.01360    1.000
    O7       O        0.01570    0.69490    0.82810    1.000
    O8       O        0.01940    0.63660    0.97040    1.000
    O9       O        0.98610    0.31150    0.66060    1.000
    O10      O        0.88140    0.31640    0.51360    1.000
    O11      O        0.69490    0.01570    0.32810    1.000
    O12      O        0.63660    0.01940    0.47040    1.000
    O13      O        0.68850    0.01390    0.83940    1.000
    O14      O        0.68360    0.11860    0.98640    1.000
    O15      O        0.98430    0.30510    0.17190    1.000
    O16      O        0.98060    0.36340    0.02960    1.000
