# CIF file generated by openbabel 3.1.0, see https://openbabel.org
data_I
_chemical_name_common 'image0'
_cell_length_a 25.618
_cell_length_b 17.04
_cell_length_c 4.4322
_cell_angle_alpha 90
_cell_angle_beta 99.96
_cell_angle_gamma 90
_space_group_name_H-M_alt 'P 1'
_space_group_name_Hall 'P 1'
loop_
    _symmetry_equiv_pos_as_xyz
    x,y,z
loop_
    _atom_site_label
    _atom_site_type_symbol
    _atom_site_fract_x
    _atom_site_fract_y
    _atom_site_fract_z
    _atom_site_occupancy
    Cu1      Cu       0.46865    0.39272    0.29599    1.000
    O1       O        0.50620    0.28520    0.34900    1.000
    P1       P        0.37850    0.37176    0.71590    1.000
    O2       O        0.42700    0.34410    0.93870    1.000
    O3       O        0.39580    0.41920    0.45200    1.000
    O4       O        0.33880    0.41840    0.86310    1.000
    C1       C        0.34800    0.28190    0.55660    1.000
    C2       C        0.36690    0.21080    0.66800    1.000
    H1       H        0.39600    0.20910    0.82600    1.000
    C3       C        0.34360    0.13990    0.54900    1.000
    H2       H        0.35610    0.09210    0.63400    1.000
    C4       C        0.30150    0.14220    0.30400    1.000
    C5       C        0.28050    0.21250    0.19300    1.000
    H3       H        0.25140    0.21380    0.03560    1.000
    C6       C        0.30340    0.28300    0.32100    1.000
    H4       H        0.28880    0.33090    0.24920    1.000
    C7       C        0.27840    0.06580    0.16400    1.000
    N1       N        0.23820    0.06990    0.92880    1.000
    O5       O        0.01460    0.07500    0.66270    1.000
    C8       C        0.15300    0.06940    0.43400    1.000
    H5       H        0.16880    0.11660    0.50480    1.000
    C9       C        0.10840    0.06960    0.20600    1.000
    H6       H        0.09520    0.11700    0.12020    1.000
    O6       O        0.48380    0.28560    0.49300    1.000
    Cu2      Cu       0.96865    0.89272    0.29599    1.000
    O7       O        0.00620    0.78520    0.34900    1.000
    P2       P        0.87850    0.87176    0.71590    1.000
    O8       O        0.92700    0.84410    0.93870    1.000
    O9       O        0.89580    0.91920    0.45200    1.000
    O10      O        0.83880    0.91840    0.86310    1.000
    C10      C        0.84800    0.78190    0.55660    1.000
    C11      C        0.86690    0.71080    0.66800    1.000
    H7       H        0.89600    0.70910    0.82600    1.000
    C12      C        0.84360    0.63990    0.54900    1.000
    H8       H        0.85610    0.59210    0.63400    1.000
    C13      C        0.80150    0.64220    0.30400    1.000
    C14      C        0.78050    0.71250    0.19300    1.000
    H9       H        0.75140    0.71380    0.03560    1.000
    C15      C        0.80340    0.78300    0.32100    1.000
    H10      H        0.78880    0.83090    0.24920    1.000
    C16      C        0.77840    0.56580    0.16400    1.000
    N2       N        0.73820    0.56990    0.92880    1.000
    O11      O        0.51460    0.57500    0.66270    1.000
    C17      C        0.65300    0.56940    0.43400    1.000
    H11      H        0.66880    0.61660    0.50480    1.000
    C18      C        0.60840    0.56960    0.20600    1.000
    H12      H        0.59520    0.61700    0.12020    1.000
    O12      O        0.98380    0.78560    0.49300    1.000
    Cu3      Cu       0.46865    0.60728    0.29599    1.000
    O13      O        0.50620    0.71480    0.34900    1.000
    P3       P        0.37850    0.62824    0.71590    1.000
    O14      O        0.42700    0.65590    0.93870    1.000
    O15      O        0.39580    0.58080    0.45200    1.000
    O16      O        0.33880    0.58160    0.86310    1.000
    C19      C        0.34800    0.71810    0.55660    1.000
    C20      C        0.36690    0.78920    0.66800    1.000
    H13      H        0.39600    0.79090    0.82600    1.000
    C21      C        0.34360    0.86010    0.54900    1.000
    H14      H        0.35610    0.90790    0.63400    1.000
    C22      C        0.30150    0.85780    0.30400    1.000
    C23      C        0.28050    0.78750    0.19300    1.000
    H15      H        0.25140    0.78620    0.03560    1.000
    C24      C        0.30340    0.71700    0.32100    1.000
    H16      H        0.28880    0.66910    0.24920    1.000
    C25      C        0.27840    0.93420    0.16400    1.000
    N3       N        0.23820    0.93010    0.92880    1.000
    O17      O        0.01460    0.92500    0.66270    1.000
    C26      C        0.15300    0.93060    0.43400    1.000
    H17      H        0.16880    0.88340    0.50480    1.000
    C27      C        0.10840    0.93040    0.20600    1.000
    H18      H        0.09520    0.88300    0.12020    1.000
    O18      O        0.48380    0.71440    0.49300    1.000
    Cu4      Cu       0.96865    0.10728    0.29599    1.000
    O19      O        0.00620    0.21480    0.34900    1.000
    P4       P        0.87850    0.12824    0.71590    1.000
    O20      O        0.92700    0.15590    0.93870    1.000
    O21      O        0.89580    0.08080    0.45200    1.000
    O22      O        0.83880    0.08160    0.86310    1.000
    C28      C        0.84800    0.21810    0.55660    1.000
    C29      C        0.86690    0.28920    0.66800    1.000
    H19      H        0.89600    0.29090    0.82600    1.000
    C30      C        0.84360    0.36010    0.54900    1.000
    H20      H        0.85610    0.40790    0.63400    1.000
    C31      C        0.80150    0.35780    0.30400    1.000
    C32      C        0.78050    0.28750    0.19300    1.000
    H21      H        0.75140    0.28620    0.03560    1.000
    C33      C        0.80340    0.21700    0.32100    1.000
    H22      H        0.78880    0.16910    0.24920    1.000
    C34      C        0.77840    0.43420    0.16400    1.000
    N4       N        0.73820    0.43010    0.92880    1.000
    O23      O        0.51460    0.42500    0.66270    1.000
    C35      C        0.65300    0.43060    0.43400    1.000
    H23      H        0.66880    0.38340    0.50480    1.000
    C36      C        0.60840    0.43040    0.20600    1.000
    H24      H        0.59520    0.38300    0.12020    1.000
    O24      O        0.98380    0.21440    0.49300    1.000
    Cu5      Cu       0.36046    0.50000    0.16950    1.000
    Cu6      Cu       0.86046    0.00000    0.16950    1.000
    N5       N        0.30080    0.00000    0.28500    1.000
    C37      C        0.21850    0.00000    0.81600    1.000
    P5       P        0.01862    0.00000    0.84820    1.000
    O25      O        0.97850    0.00000    0.06900    1.000
    C38      C        0.17340    0.00000    0.55400    1.000
    C39      C        0.08350    0.00000    0.10300    1.000
    N6       N        0.80080    0.50000    0.28500    1.000
    C40      C        0.71850    0.50000    0.81600    1.000
    P6       P        0.51862    0.50000    0.84820    1.000
    O26      O        0.47850    0.50000    0.06900    1.000
    C41      C        0.67340    0.50000    0.55400    1.000
    C42      C        0.58350    0.50000    0.10300    1.000
