# CIF file generated by openbabel 3.1.0, see https://openbabel.org
data_I
_chemical_name_common 'WEMDID_clean'
_cell_length_a 9.7166
_cell_length_b 11.926
_cell_length_c 12.38
_cell_angle_alpha 90
_cell_angle_beta 99.42
_cell_angle_gamma 90
_space_group_name_H-M_alt 'P 1'
_space_group_name_Hall 'P 1'
loop_
    _symmetry_equiv_pos_as_xyz
    x,y,z
loop_
    _atom_site_label
    _atom_site_type_symbol
    _atom_site_fract_x
    _atom_site_fract_y
    _atom_site_fract_z
    _atom_site_occupancy
    Nd1      Nd       0.78712    0.51854    0.67074    1.000
    Nd2      Nd       0.71288    0.01854    0.82926    1.000
    Nd3      Nd       0.21288    0.48146    0.32926    1.000
    Nd4      Nd       0.28712    0.98146    0.17074    1.000
    C1       C        0.06250    0.50170    0.54720    1.000
    C2       C        0.49400    0.56420    0.49820    1.000
    C3       C        0.69920    0.74940    0.78220    1.000
    C4       C        0.79850    0.79290    0.70420    1.000
    C5       C        0.43750    0.00170    0.95280    1.000
    C6       C        0.00600    0.06420    0.00180    1.000
    C7       C        0.80080    0.24940    0.71780    1.000
    C8       C        0.70150    0.29290    0.79580    1.000
    C9       C        0.93750    0.49830    0.45280    1.000
    C10      C        0.50600    0.43580    0.50180    1.000
    C11      C        0.30080    0.25060    0.21780    1.000
    C12      C        0.20150    0.20710    0.29580    1.000
    C13      C        0.56250    0.99830    0.04720    1.000
    C14      C        0.99400    0.93580    0.99820    1.000
    C15      C        0.19920    0.75060    0.28220    1.000
    C16      C        0.29850    0.70710    0.20420    1.000
    O1       O        0.18100    0.48680    0.52300    1.000
    O2       O        0.03460    0.51800    0.64120    1.000
    O3       O        0.39960    0.60630    0.42990    1.000
    O4       O        0.58110    0.61830    0.56530    1.000
    O5       O        0.69490    0.64580    0.79660    1.000
    O6       O        0.63230    0.82200    0.82570    1.000
    O7       O        0.85900    0.71950    0.65610    1.000
    O8       O        0.81020    0.89660    0.69630    1.000
    O9       O        0.31900    0.98680    0.97700    1.000
    O10      O        0.46540    0.01800    0.85880    1.000
    O11      O        0.10040    0.10630    0.07010    1.000
    O12      O        0.91890    0.11830    0.93470    1.000
    O13      O        0.80510    0.14580    0.70340    1.000
    O14      O        0.86770    0.32200    0.67430    1.000
    O15      O        0.64100    0.21950    0.84390    1.000
    O16      O        0.68980    0.39660    0.80370    1.000
    O17      O        0.81900    0.51320    0.47700    1.000
    O18      O        0.96540    0.48200    0.35880    1.000
    O19      O        0.60040    0.39370    0.57010    1.000
    O20      O        0.41890    0.38170    0.43470    1.000
    O21      O        0.30510    0.35420    0.20340    1.000
    O22      O        0.36770    0.17800    0.17430    1.000
    O23      O        0.14100    0.28050    0.34390    1.000
    O24      O        0.18980    0.10340    0.30370    1.000
    O25      O        0.68100    0.01320    0.02300    1.000
    O26      O        0.53460    0.98200    0.14120    1.000
    O27      O        0.89960    0.89370    0.92990    1.000
    O28      O        0.08110    0.88170    0.06530    1.000
    O29      O        0.19490    0.85420    0.29660    1.000
    O30      O        0.13230    0.67800    0.32570    1.000
    O31      O        0.35900    0.78050    0.15610    1.000
    O32      O        0.31020    0.60340    0.19630    1.000
