# CIF file generated by openbabel 3.1.0, see https://openbabel.org
data_I
_chemical_name_common 'image0'
_cell_length_a 17.4025
_cell_length_b 9.9887
_cell_length_c 25.5946
_cell_angle_alpha 90
_cell_angle_beta 98.568
_cell_angle_gamma 90
_space_group_name_H-M_alt 'P 1'
_space_group_name_Hall 'P 1'
loop_
    _symmetry_equiv_pos_as_xyz
    x,y,z
loop_
    _atom_site_label
    _atom_site_type_symbol
    _atom_site_fract_x
    _atom_site_fract_y
    _atom_site_fract_z
    _atom_site_occupancy
    U1       U        0.53331    0.43826    0.86060    1.000
    Cl1      Cl       0.66411    0.37908    0.81975    1.000
    O1       O        0.49395    0.28540    0.79253    1.000
    O2       O        0.50614    0.59000    0.79340    1.000
    O3       O        0.56690    0.21650    0.89977    1.000
    O4       O        0.62537    0.47350    0.94230    1.000
    O5       O        0.62303    0.63080    0.88213    1.000
    O6       O        0.47918    0.32750    0.93391    1.000
    C1       C        0.64770    0.58660    0.92780    1.000
    C2       C        0.51860    0.22340    0.93165    1.000
    C3       C        0.73110    0.78750    0.94785    1.000
    H1       H        0.71830    0.81340    0.91270    1.000
    C4       C        0.70170    0.66950    0.96525    1.000
    C5       C        0.50850    0.10790    0.96760    1.000
    C6       C        0.55260    0.99100    0.96405    1.000
    H2       H        0.58780    0.98560    0.94010    1.000
    C7       C        0.51720    0.86810    0.79726    1.000
    H3       H        0.52890    0.82160    0.82890    1.000
    C8       C        0.51700    0.00750    0.79710    1.000
    H4       H        0.52830    0.05430    0.82870    1.000
    C9       C        0.45720    0.11570    0.00319    1.000
    H5       H        0.42860    0.19370    0.00530    1.000
    C10      C        0.72070    0.63380    0.01749    1.000
    H6       H        0.70070    0.55510    0.02950    1.000
    U2       U        0.03331    0.93826    0.86060    1.000
    Cl2      Cl       0.16411    0.87908    0.81975    1.000
    O7       O        0.99395    0.78540    0.79253    1.000
    O8       O        0.00614    0.09000    0.79340    1.000
    O9       O        0.06690    0.71650    0.89977    1.000
    O10      O        0.12537    0.97350    0.94230    1.000
    O11      O        0.12303    0.13080    0.88213    1.000
    O12      O        0.97918    0.82750    0.93391    1.000
    C11      C        0.14770    0.08660    0.92780    1.000
    C12      C        0.01860    0.72340    0.93165    1.000
    C13      C        0.23110    0.28750    0.94785    1.000
    H7       H        0.21830    0.31340    0.91270    1.000
    C14      C        0.20170    0.16950    0.96525    1.000
    C15      C        0.00850    0.60790    0.96760    1.000
    C16      C        0.05260    0.49100    0.96405    1.000
    H8       H        0.08780    0.48560    0.94010    1.000
    C17      C        0.01720    0.36810    0.79726    1.000
    H9       H        0.02890    0.32160    0.82890    1.000
    C18      C        0.01700    0.50750    0.79710    1.000
    H10      H        0.02830    0.55430    0.82870    1.000
    C19      C        0.95720    0.61570    0.00319    1.000
    H11      H        0.92860    0.69370    0.00530    1.000
    C20      C        0.22070    0.13380    0.01749    1.000
    H12      H        0.20070    0.05510    0.02950    1.000
    U3       U        0.46669    0.43826    0.63940    1.000
    Cl3      Cl       0.33589    0.37908    0.68025    1.000
    O13      O        0.50605    0.28540    0.70747    1.000
    O14      O        0.49386    0.59000    0.70660    1.000
    O15      O        0.43310    0.21650    0.60023    1.000
    O16      O        0.37463    0.47350    0.55770    1.000
    O17      O        0.37697    0.63080    0.61787    1.000
    O18      O        0.52082    0.32750    0.56609    1.000
    C21      C        0.35230    0.58660    0.57220    1.000
    C22      C        0.48140    0.22340    0.56835    1.000
    C23      C        0.26890    0.78750    0.55215    1.000
    H13      H        0.28170    0.81340    0.58730    1.000
    C24      C        0.29830    0.66950    0.53475    1.000
    C25      C        0.49150    0.10790    0.53240    1.000
    C26      C        0.44740    0.99100    0.53595    1.000
    H14      H        0.41220    0.98560    0.55990    1.000
    C27      C        0.48280    0.86810    0.70274    1.000
    H15      H        0.47110    0.82160    0.67110    1.000
    C28      C        0.48300    0.00750    0.70290    1.000
    H16      H        0.47170    0.05430    0.67130    1.000
    C29      C        0.54280    0.11570    0.49681    1.000
    H17      H        0.57140    0.19370    0.49470    1.000
    C30      C        0.27930    0.63380    0.48251    1.000
    H18      H        0.29930    0.55510    0.47050    1.000
    U4       U        0.96669    0.93826    0.63940    1.000
    Cl4      Cl       0.83589    0.87908    0.68025    1.000
    O19      O        0.00605    0.78540    0.70747    1.000
    O20      O        0.99386    0.09000    0.70660    1.000
    O21      O        0.93310    0.71650    0.60023    1.000
    O22      O        0.87463    0.97350    0.55770    1.000
    O23      O        0.87697    0.13080    0.61787    1.000
    O24      O        0.02082    0.82750    0.56609    1.000
    C31      C        0.85230    0.08660    0.57220    1.000
    C32      C        0.98140    0.72340    0.56835    1.000
    C33      C        0.76890    0.28750    0.55215    1.000
    H19      H        0.78170    0.31340    0.58730    1.000
    C34      C        0.79830    0.16950    0.53475    1.000
    C35      C        0.99150    0.60790    0.53240    1.000
    C36      C        0.94740    0.49100    0.53595    1.000
    H20      H        0.91220    0.48560    0.55990    1.000
    C37      C        0.98280    0.36810    0.70274    1.000
    H21      H        0.97110    0.32160    0.67110    1.000
    C38      C        0.98300    0.50750    0.70290    1.000
    H22      H        0.97170    0.55430    0.67130    1.000
    C39      C        0.04280    0.61570    0.49681    1.000
    H23      H        0.07140    0.69370    0.49470    1.000
    C40      C        0.77930    0.13380    0.48251    1.000
    H24      H        0.79930    0.05510    0.47050    1.000
    U5       U        0.46669    0.56174    0.13940    1.000
    Cl5      Cl       0.33589    0.62092    0.18025    1.000
    O25      O        0.50605    0.71460    0.20747    1.000
    O26      O        0.49386    0.41000    0.20660    1.000
    O27      O        0.43310    0.78350    0.10023    1.000
    O28      O        0.37463    0.52650    0.05770    1.000
    O29      O        0.37697    0.36920    0.11787    1.000
    O30      O        0.52082    0.67250    0.06609    1.000
    C41      C        0.35230    0.41340    0.07220    1.000
    C42      C        0.48140    0.77660    0.06835    1.000
    C43      C        0.26890    0.21250    0.05215    1.000
    H25      H        0.28170    0.18660    0.08730    1.000
    C44      C        0.29830    0.33050    0.03475    1.000
    C45      C        0.49150    0.89210    0.03240    1.000
    C46      C        0.44740    0.00900    0.03595    1.000
    H26      H        0.41220    0.01440    0.05990    1.000
    C47      C        0.48280    0.13190    0.20274    1.000
    H27      H        0.47110    0.17840    0.17110    1.000
    C48      C        0.48300    0.99250    0.20290    1.000
    H28      H        0.47170    0.94570    0.17130    1.000
    C49      C        0.54280    0.88430    0.99681    1.000
    H29      H        0.57140    0.80630    0.99470    1.000
    C50      C        0.27930    0.36620    0.98251    1.000
    H30      H        0.29930    0.44490    0.97050    1.000
    U6       U        0.96669    0.06174    0.13940    1.000
    Cl6      Cl       0.83589    0.12092    0.18025    1.000
    O31      O        0.00605    0.21460    0.20747    1.000
    O32      O        0.99386    0.91000    0.20660    1.000
    O33      O        0.93310    0.28350    0.10023    1.000
    O34      O        0.87463    0.02650    0.05770    1.000
    O35      O        0.87697    0.86920    0.11787    1.000
    O36      O        0.02082    0.17250    0.06609    1.000
    C51      C        0.85230    0.91340    0.07220    1.000
    C52      C        0.98140    0.27660    0.06835    1.000
    C53      C        0.76890    0.71250    0.05215    1.000
    H31      H        0.78170    0.68660    0.08730    1.000
    C54      C        0.79830    0.83050    0.03475    1.000
    C55      C        0.99150    0.39210    0.03240    1.000
    C56      C        0.94740    0.50900    0.03595    1.000
    H32      H        0.91220    0.51440    0.05990    1.000
    C57      C        0.98280    0.63190    0.20274    1.000
    H33      H        0.97110    0.67840    0.17110    1.000
    C58      C        0.98300    0.49250    0.20290    1.000
    H34      H        0.97170    0.44570    0.17130    1.000
    C59      C        0.04280    0.38430    0.99681    1.000
    H35      H        0.07140    0.30630    0.99470    1.000
    C60      C        0.77930    0.86620    0.98251    1.000
    H36      H        0.79930    0.94490    0.97050    1.000
    U7       U        0.53331    0.56174    0.36060    1.000
    Cl7      Cl       0.66411    0.62092    0.31975    1.000
    O37      O        0.49395    0.71460    0.29253    1.000
    O38      O        0.50614    0.41000    0.29340    1.000
    O39      O        0.56690    0.78350    0.39977    1.000
    O40      O        0.62537    0.52650    0.44230    1.000
    O41      O        0.62303    0.36920    0.38213    1.000
    O42      O        0.47918    0.67250    0.43391    1.000
    C61      C        0.64770    0.41340    0.42780    1.000
    C62      C        0.51860    0.77660    0.43165    1.000
    C63      C        0.73110    0.21250    0.44785    1.000
    H37      H        0.71830    0.18660    0.41270    1.000
    C64      C        0.70170    0.33050    0.46525    1.000
    C65      C        0.50850    0.89210    0.46760    1.000
    C66      C        0.55260    0.00900    0.46405    1.000
    H38      H        0.58780    0.01440    0.44010    1.000
    C67      C        0.51720    0.13190    0.29726    1.000
    H39      H        0.52890    0.17840    0.32890    1.000
    C68      C        0.51700    0.99250    0.29710    1.000
    H40      H        0.52830    0.94570    0.32870    1.000
    C69      C        0.45720    0.88430    0.50319    1.000
    H41      H        0.42860    0.80630    0.50530    1.000
    C70      C        0.72070    0.36620    0.51749    1.000
    H42      H        0.70070    0.44490    0.52950    1.000
    U8       U        0.03331    0.06174    0.36060    1.000
    Cl8      Cl       0.16411    0.12092    0.31975    1.000
    O43      O        0.99395    0.21460    0.29253    1.000
    O44      O        0.00614    0.91000    0.29340    1.000
    O45      O        0.06690    0.28350    0.39977    1.000
    O46      O        0.12537    0.02650    0.44230    1.000
    O47      O        0.12303    0.86920    0.38213    1.000
    O48      O        0.97918    0.17250    0.43391    1.000
    C71      C        0.14770    0.91340    0.42780    1.000
    C72      C        0.01860    0.27660    0.43165    1.000
    C73      C        0.23110    0.71250    0.44785    1.000
    H43      H        0.21830    0.68660    0.41270    1.000
    C74      C        0.20170    0.83050    0.46525    1.000
    C75      C        0.00850    0.39210    0.46760    1.000
    C76      C        0.05260    0.50900    0.46405    1.000
    H44      H        0.08780    0.51440    0.44010    1.000
    C77      C        0.01720    0.63190    0.29726    1.000
    H45      H        0.02890    0.67840    0.32890    1.000
    C78      C        0.01700    0.49250    0.29710    1.000
    H46      H        0.02830    0.44570    0.32870    1.000
    C79      C        0.95720    0.38430    0.50319    1.000
    H47      H        0.92860    0.30630    0.50530    1.000
    C80      C        0.22070    0.86620    0.51749    1.000
    H48      H        0.20070    0.94490    0.52950    1.000
    C81      C        0.50000    0.64910    0.75000    1.000
    C82      C        0.50000    0.22700    0.75000    1.000
    C83      C        0.50000    0.79900    0.75000    1.000
    C84      C        0.50000    0.07620    0.75000    1.000
    C85      C        0.00000    0.14910    0.75000    1.000
    C86      C        0.00000    0.72700    0.75000    1.000
    C87      C        0.00000    0.29900    0.75000    1.000
    C88      C        0.00000    0.57620    0.75000    1.000
    C89      C        0.50000    0.35090    0.25000    1.000
    C90      C        0.50000    0.77300    0.25000    1.000
    C91      C        0.50000    0.20100    0.25000    1.000
    C92      C        0.50000    0.92380    0.25000    1.000
    C93      C        0.00000    0.85090    0.25000    1.000
    C94      C        0.00000    0.27300    0.25000    1.000
    C95      C        0.00000    0.70100    0.25000    1.000
    C96      C        0.00000    0.42380    0.25000    1.000
