# CIF file generated by openbabel 3.1.0, see https://openbabel.org
data_I
_chemical_name_common 'image0'
_cell_length_a 9.841
_cell_length_b 10.226
_cell_length_c 13.404
_cell_angle_alpha 82.02
_cell_angle_beta 86.86
_cell_angle_gamma 65.1
_space_group_name_H-M_alt 'P 1'
_space_group_name_Hall 'P 1'
loop_
    _symmetry_equiv_pos_as_xyz
    x,y,z
loop_
    _atom_site_label
    _atom_site_type_symbol
    _atom_site_fract_x
    _atom_site_fract_y
    _atom_site_fract_z
    _atom_site_occupancy
    Yb1      Yb       0.33414    0.21872    0.18262    1.000
    Cs1      Cs       0.14983    0.54990    0.38392    1.000
    Mo1      Mo       0.74440    0.62576    0.23865    1.000
    O1       O        0.34950    0.44320    0.18420    1.000
    H1       H        0.45340    0.42040    0.20090    1.000
    N1       N        0.90860    0.33740    0.40580    1.000
    N2       N        0.74860    0.74090    0.45780    1.000
    N3       N        0.43280    0.60990    0.33250    1.000
    N4       N        0.48180    0.96300    0.20780    1.000
    N5       N        0.67720    0.37430    0.15030    1.000
    N6       N        0.29380    0.28000    0.00730    1.000
    N7       N        0.08430    0.41150    0.17230    1.000
    N8       N        0.94580    0.81920    0.20160    1.000
    C1       C        0.84570    0.43940    0.34930    1.000
    C2       C        0.74550    0.70340    0.38170    1.000
    C3       C        0.54250    0.61720    0.30430    1.000
    C4       C        0.57050    0.84490    0.21740    1.000
    C5       C        0.70360    0.46160    0.17800    1.000
    C6       C        0.28090    0.31210    0.92200    1.000
    C7       C        0.96440    0.48910    0.18940    1.000
    C8       C        0.87330    0.75490    0.21320    1.000
    C9       C        0.30350    0.56290    0.10380    1.000
    H2       H        0.36570    0.53390    0.04600    1.000
    H3       H        0.31340    0.64410    0.12560    1.000
    H4       H        0.20090    0.59050    0.08630    1.000
    Yb2      Yb       0.66586    0.78128    0.81738    1.000
    Cs2      Cs       0.85017    0.45010    0.61608    1.000
    Mo2      Mo       0.25560    0.37424    0.76135    1.000
    O2       O        0.65050    0.55680    0.81580    1.000
    H5       H        0.54660    0.57960    0.79910    1.000
    N9       N        0.09140    0.66260    0.59420    1.000
    N10      N        0.25140    0.25910    0.54220    1.000
    N11      N        0.56720    0.39010    0.66750    1.000
    N12      N        0.51820    0.03700    0.79220    1.000
    N13      N        0.32280    0.62570    0.84970    1.000
    N14      N        0.70620    0.72000    0.99270    1.000
    N15      N        0.91570    0.58850    0.82770    1.000
    N16      N        0.05420    0.18080    0.79840    1.000
    C10      C        0.15430    0.56060    0.65070    1.000
    C11      C        0.25450    0.29660    0.61830    1.000
    C12      C        0.45750    0.38280    0.69570    1.000
    C13      C        0.42950    0.15510    0.78260    1.000
    C14      C        0.29640    0.53840    0.82200    1.000
    C15      C        0.71910    0.68790    0.07800    1.000
    C16      C        0.03560    0.51090    0.81060    1.000
    C17      C        0.12670    0.24510    0.78680    1.000
    C18      C        0.69650    0.43710    0.89620    1.000
    H6       H        0.63430    0.46610    0.95400    1.000
    H7       H        0.68660    0.35590    0.87440    1.000
    H8       H        0.79910    0.40950    0.91370    1.000
