# CIF file generated by openbabel 3.1.0, see https://openbabel.org
data_I
_chemical_name_common 'image0'
_cell_length_a 23.9647
_cell_length_b 23.9647
_cell_length_c 23.9647
_cell_angle_alpha 90
_cell_angle_beta 90
_cell_angle_gamma 90
_space_group_name_H-M_alt 'P 1'
_space_group_name_Hall 'P 1'
loop_
    _symmetry_equiv_pos_as_xyz
    x,y,z
loop_
    _atom_site_label
    _atom_site_type_symbol
    _atom_site_fract_x
    _atom_site_fract_y
    _atom_site_fract_z
    _atom_site_occupancy
    C1       C        0.89060    0.61070    0.24830    1.000
    C2       C        0.94030    0.64580    0.26920    1.000
    H1       H        0.96370    0.65560    0.23760    1.000
    H2       H        0.92630    0.68020    0.28530    1.000
    O1       O        0.96970    0.62070    0.30530    1.000
    C3       C        0.02640    0.62670    0.31170    1.000
    C4       C        0.05530    0.58150    0.32960    1.000
    H3       H        0.03700    0.54790    0.33640    1.000
    C5       C        0.11480    0.58610    0.33810    1.000
    H4       H        0.13520    0.55510    0.34930    1.000
    C6       C        0.14110    0.63570    0.32990    1.000
    C7       C        0.11220    0.68110    0.31060    1.000
    H5       H        0.13040    0.71470    0.30400    1.000
    C8       C        0.05110    0.67590    0.30050    1.000
    H6       H        0.03050    0.70580    0.28670    1.000
    C9       C        0.20250    0.63880    0.33320    1.000
    O2       O        0.22540    0.59720    0.35310    1.000
    O3       O        0.22460    0.68240    0.31910    1.000
    C10      C        0.91220    0.56080    0.21550    1.000
    H7       H        0.93330    0.57360    0.18340    1.000
    H8       H        0.93680    0.53870    0.23880    1.000
    O4       O        0.87030    0.53000    0.19860    1.000
    C11      C        0.86950    0.47460    0.18780    1.000
    C12      C        0.91560    0.44770    0.17170    1.000
    H9       H        0.94970    0.46600    0.16960    1.000
    C13      C        0.91060    0.38900    0.15770    1.000
    H10      H        0.93990    0.37090    0.13980    1.000
    C14      C        0.86290    0.35970    0.17080    1.000
    C15      C        0.81810    0.38800    0.18970    1.000
    H11      H        0.78470    0.36910    0.19590    1.000
    C16      C        0.82120    0.44740    0.20050    1.000
    H12      H        0.79110    0.46650    0.21580    1.000
    C17      C        0.86200    0.29710    0.16520    1.000
    O5       O        0.90170    0.27430    0.14680    1.000
    O6       O        0.81550    0.27530    0.18060    1.000
    C18      C        0.85780    0.65060    0.20510    1.000
    H13      H        0.82890    0.63050    0.18510    1.000
    H14      H        0.84160    0.68270    0.22370    1.000
    O7       O        0.90010    0.66520    0.17120    1.000
    C19      C        0.88570    0.69940    0.12690    1.000
    C20      C        0.83300    0.71840    0.11890    1.000
    H15      H        0.80490    0.71240    0.14510    1.000
    C21      C        0.82230    0.74980    0.06490    1.000
    H16      H        0.78630    0.75550    0.05140    1.000
    C22      C        0.86830    0.76940    0.03710    1.000
    C23      C        0.92150    0.74990    0.04630    1.000
    H17      H        0.95020    0.75730    0.02130    1.000
    C24      C        0.93130    0.71720    0.09660    1.000
    H18      H        0.96740    0.70850    0.10800    1.000
    C25      C        0.86960    0.80200    0.98290    1.000
    O8       O        0.91380    0.80290    0.95480    1.000
    O9       O        0.81780    0.83060    0.98130    1.000
    C26      C        0.85090    0.59270    0.29270    1.000
    H19      H        0.82210    0.56880    0.27730    1.000
    H20      H        0.87040    0.57240    0.32180    1.000
    O10      O        0.82780    0.64150    0.31380    1.000
    C27      C        0.80060    0.63470    0.36520    1.000
    C28      C        0.77440    0.68140    0.38520    1.000
    H21      H        0.77700    0.71500    0.36600    1.000
    C29      C        0.74200    0.67750    0.43780    1.000
    H22      H        0.72600    0.70930    0.45330    1.000
    C30      C        0.73570    0.62670    0.46360    1.000
    C31      C        0.75660    0.57820    0.43950    1.000
    H23      H        0.74840    0.54330    0.45440    1.000
    C32      C        0.79300    0.58430    0.38850    1.000
    H24      H        0.81020    0.55310    0.37320    1.000
    C33      C        0.70370    0.63100    0.51800    1.000
    O11      O        0.69910    0.58440    0.54870    1.000
    O12      O        0.66720    0.68130    0.51780    1.000
    Zn1      Zn       0.30362    0.58752    0.37162    1.000
    Zn2      Zn       0.08743    0.80379    0.12868    1.000
    C34      C        0.10940    0.38930    0.24830    1.000
    C35      C        0.05970    0.35420    0.26920    1.000
    H25      H        0.03630    0.34440    0.23760    1.000
    H26      H        0.07370    0.31980    0.28530    1.000
    O13      O        0.03030    0.37930    0.30530    1.000
    C36      C        0.97360    0.37330    0.31170    1.000
    C37      C        0.94470    0.41850    0.32960    1.000
    H27      H        0.96300    0.45210    0.33640    1.000
    C38      C        0.88520    0.41390    0.33810    1.000
    H28      H        0.86480    0.44490    0.34930    1.000
    C39      C        0.85890    0.36430    0.32990    1.000
    C40      C        0.88780    0.31890    0.31060    1.000
    H29      H        0.86960    0.28530    0.30400    1.000
    C41      C        0.94890    0.32410    0.30050    1.000
    H30      H        0.96950    0.29420    0.28670    1.000
    C42      C        0.79750    0.36120    0.33320    1.000
    O14      O        0.77460    0.40280    0.35310    1.000
    O15      O        0.77540    0.31760    0.31910    1.000
    C43      C        0.08780    0.43920    0.21550    1.000
    H31      H        0.06670    0.42640    0.18340    1.000
    H32      H        0.06320    0.46130    0.23880    1.000
    O16      O        0.12970    0.47000    0.19860    1.000
    C44      C        0.13050    0.52540    0.18780    1.000
    C45      C        0.08440    0.55230    0.17170    1.000
    H33      H        0.05030    0.53400    0.16960    1.000
    C46      C        0.08940    0.61100    0.15770    1.000
    H34      H        0.06010    0.62910    0.13980    1.000
    C47      C        0.13710    0.64030    0.17080    1.000
    C48      C        0.18190    0.61200    0.18970    1.000
    H35      H        0.21530    0.63090    0.19590    1.000
    C49      C        0.17880    0.55260    0.20050    1.000
    H36      H        0.20890    0.53350    0.21580    1.000
    C50      C        0.13800    0.70290    0.16520    1.000
    O17      O        0.09830    0.72570    0.14680    1.000
    O18      O        0.18450    0.72470    0.18060    1.000
    C51      C        0.14220    0.34940    0.20510    1.000
    H37      H        0.17110    0.36950    0.18510    1.000
    H38      H        0.15840    0.31730    0.22370    1.000
    O19      O        0.09990    0.33480    0.17120    1.000
    C52      C        0.11430    0.30060    0.12690    1.000
    C53      C        0.16700    0.28160    0.11890    1.000
    H39      H        0.19510    0.28760    0.14510    1.000
    C54      C        0.17770    0.25020    0.06490    1.000
    H40      H        0.21370    0.24450    0.05140    1.000
    C55      C        0.13170    0.23060    0.03710    1.000
    C56      C        0.07850    0.25010    0.04630    1.000
    H41      H        0.04980    0.24270    0.02130    1.000
    C57      C        0.06870    0.28280    0.09660    1.000
    H42      H        0.03260    0.29150    0.10800    1.000
    C58      C        0.13040    0.19800    0.98290    1.000
    O20      O        0.08620    0.19710    0.95480    1.000
    O21      O        0.18220    0.16940    0.98130    1.000
    C59      C        0.14910    0.40730    0.29270    1.000
    H43      H        0.17790    0.43120    0.27730    1.000
    H44      H        0.12960    0.42760    0.32180    1.000
    O22      O        0.17220    0.35850    0.31380    1.000
    C60      C        0.19940    0.36530    0.36520    1.000
    C61      C        0.22560    0.31860    0.38520    1.000
    H45      H        0.22300    0.28500    0.36600    1.000
    C62      C        0.25800    0.32250    0.43780    1.000
    H46      H        0.27400    0.29070    0.45330    1.000
    C63      C        0.26430    0.37330    0.46360    1.000
    C64      C        0.24340    0.42180    0.43950    1.000
    H47      H        0.25160    0.45670    0.45440    1.000
    C65      C        0.20700    0.41570    0.38850    1.000
    H48      H        0.18980    0.44690    0.37320    1.000
    C66      C        0.29630    0.36900    0.51800    1.000
    O23      O        0.30090    0.41560    0.54870    1.000
    O24      O        0.33280    0.31870    0.51780    1.000
    Zn3      Zn       0.69638    0.41248    0.37162    1.000
    Zn4      Zn       0.91257    0.19621    0.12868    1.000
    C67      C        0.10940    0.61070    0.75170    1.000
    C68      C        0.05970    0.64580    0.73080    1.000
    H49      H        0.03630    0.65560    0.76240    1.000
    H50      H        0.07370    0.68020    0.71470    1.000
    O25      O        0.03030    0.62070    0.69470    1.000
    C69      C        0.97360    0.62670    0.68830    1.000
    C70      C        0.94470    0.58150    0.67040    1.000
    H51      H        0.96300    0.54790    0.66360    1.000
    C71      C        0.88520    0.58610    0.66190    1.000
    H52      H        0.86480    0.55510    0.65070    1.000
    C72      C        0.85890    0.63570    0.67010    1.000
    C73      C        0.88780    0.68110    0.68940    1.000
    H53      H        0.86960    0.71470    0.69600    1.000
    C74      C        0.94890    0.67590    0.69950    1.000
    H54      H        0.96950    0.70580    0.71330    1.000
    C75      C        0.79750    0.63880    0.66680    1.000
    O26      O        0.77460    0.59720    0.64690    1.000
    O27      O        0.77540    0.68240    0.68090    1.000
    C76      C        0.08780    0.56080    0.78450    1.000
    H55      H        0.06670    0.57360    0.81660    1.000
    H56      H        0.06320    0.53870    0.76120    1.000
    O28      O        0.12970    0.53000    0.80140    1.000
    C77      C        0.13050    0.47460    0.81220    1.000
    C78      C        0.08440    0.44770    0.82830    1.000
    H57      H        0.05030    0.46600    0.83040    1.000
    C79      C        0.08940    0.38900    0.84230    1.000
    H58      H        0.06010    0.37090    0.86020    1.000
    C80      C        0.13710    0.35970    0.82920    1.000
    C81      C        0.18190    0.38800    0.81030    1.000
    H59      H        0.21530    0.36910    0.80410    1.000
    C82      C        0.17880    0.44740    0.79950    1.000
    H60      H        0.20890    0.46650    0.78420    1.000
    C83      C        0.13800    0.29710    0.83480    1.000
    O29      O        0.09830    0.27430    0.85320    1.000
    O30      O        0.18450    0.27530    0.81940    1.000
    C84      C        0.14220    0.65060    0.79490    1.000
    H61      H        0.17110    0.63050    0.81490    1.000
    H62      H        0.15840    0.68270    0.77630    1.000
    O31      O        0.09990    0.66520    0.82880    1.000
    C85      C        0.11430    0.69940    0.87310    1.000
    C86      C        0.16700    0.71840    0.88110    1.000
    H63      H        0.19510    0.71240    0.85490    1.000
    C87      C        0.17770    0.74980    0.93510    1.000
    H64      H        0.21370    0.75550    0.94860    1.000
    C88      C        0.13170    0.76940    0.96290    1.000
    C89      C        0.07850    0.74990    0.95370    1.000
    H65      H        0.04980    0.75730    0.97870    1.000
    C90      C        0.06870    0.71720    0.90340    1.000
    H66      H        0.03260    0.70850    0.89200    1.000
    C91      C        0.13040    0.80200    0.01710    1.000
    O32      O        0.08620    0.80290    0.04520    1.000
    O33      O        0.18220    0.83060    0.01870    1.000
    C92      C        0.14910    0.59270    0.70730    1.000
    H67      H        0.17790    0.56880    0.72270    1.000
    H68      H        0.12960    0.57240    0.67820    1.000
    O34      O        0.17220    0.64150    0.68620    1.000
    C93      C        0.19940    0.63470    0.63480    1.000
    C94      C        0.22560    0.68140    0.61480    1.000
    H69      H        0.22300    0.71500    0.63400    1.000
    C95      C        0.25800    0.67750    0.56220    1.000
    H70      H        0.27400    0.70930    0.54670    1.000
    C96      C        0.26430    0.62670    0.53640    1.000
    C97      C        0.24340    0.57820    0.56050    1.000
    H71      H        0.25160    0.54330    0.54560    1.000
    C98      C        0.20700    0.58430    0.61150    1.000
    H72      H        0.18980    0.55310    0.62680    1.000
    C99      C        0.29630    0.63100    0.48200    1.000
    O35      O        0.30090    0.58440    0.45130    1.000
    O36      O        0.33280    0.68130    0.48220    1.000
    Zn5      Zn       0.69638    0.58752    0.62838    1.000
    Zn6      Zn       0.91257    0.80379    0.87132    1.000
    C100     C        0.89060    0.38930    0.75170    1.000
    C101     C        0.94030    0.35420    0.73080    1.000
    H73      H        0.96370    0.34440    0.76240    1.000
    H74      H        0.92630    0.31980    0.71470    1.000
    O37      O        0.96970    0.37930    0.69470    1.000
    C102     C        0.02640    0.37330    0.68830    1.000
    C103     C        0.05530    0.41850    0.67040    1.000
    H75      H        0.03700    0.45210    0.66360    1.000
    C104     C        0.11480    0.41390    0.66190    1.000
    H76      H        0.13520    0.44490    0.65070    1.000
    C105     C        0.14110    0.36430    0.67010    1.000
    C106     C        0.11220    0.31890    0.68940    1.000
    H77      H        0.13040    0.28530    0.69600    1.000
    C107     C        0.05110    0.32410    0.69950    1.000
    H78      H        0.03050    0.29420    0.71330    1.000
    C108     C        0.20250    0.36120    0.66680    1.000
    O38      O        0.22540    0.40280    0.64690    1.000
    O39      O        0.22460    0.31760    0.68090    1.000
    C109     C        0.91220    0.43920    0.78450    1.000
    H79      H        0.93330    0.42640    0.81660    1.000
    H80      H        0.93680    0.46130    0.76120    1.000
    O40      O        0.87030    0.47000    0.80140    1.000
    C110     C        0.86950    0.52540    0.81220    1.000
    C111     C        0.91560    0.55230    0.82830    1.000
    H81      H        0.94970    0.53400    0.83040    1.000
    C112     C        0.91060    0.61100    0.84230    1.000
    H82      H        0.93990    0.62910    0.86020    1.000
    C113     C        0.86290    0.64030    0.82920    1.000
    C114     C        0.81810    0.61200    0.81030    1.000
    H83      H        0.78470    0.63090    0.80410    1.000
    C115     C        0.82120    0.55260    0.79950    1.000
    H84      H        0.79110    0.53350    0.78420    1.000
    C116     C        0.86200    0.70290    0.83480    1.000
    O41      O        0.90170    0.72570    0.85320    1.000
    O42      O        0.81550    0.72470    0.81940    1.000
    C117     C        0.85780    0.34940    0.79490    1.000
    H85      H        0.82890    0.36950    0.81490    1.000
    H86      H        0.84160    0.31730    0.77630    1.000
    O43      O        0.90010    0.33480    0.82880    1.000
    C118     C        0.88570    0.30060    0.87310    1.000
    C119     C        0.83300    0.28160    0.88110    1.000
    H87      H        0.80490    0.28760    0.85490    1.000
    C120     C        0.82230    0.25020    0.93510    1.000
    H88      H        0.78630    0.24450    0.94860    1.000
    C121     C        0.86830    0.23060    0.96290    1.000
    C122     C        0.92150    0.25010    0.95370    1.000
    H89      H        0.95020    0.24270    0.97870    1.000
    C123     C        0.93130    0.28280    0.90340    1.000
    H90      H        0.96740    0.29150    0.89200    1.000
    C124     C        0.86960    0.19800    0.01710    1.000
    O44      O        0.91380    0.19710    0.04520    1.000
    O45      O        0.81780    0.16940    0.01870    1.000
    C125     C        0.85090    0.40730    0.70730    1.000
    H91      H        0.82210    0.43120    0.72270    1.000
    H92      H        0.87040    0.42760    0.67820    1.000
    O46      O        0.82780    0.35850    0.68620    1.000
    C126     C        0.80060    0.36530    0.63480    1.000
    C127     C        0.77440    0.31860    0.61480    1.000
    H93      H        0.77700    0.28500    0.63400    1.000
    C128     C        0.74200    0.32250    0.56220    1.000
    H94      H        0.72600    0.29070    0.54670    1.000
    C129     C        0.73570    0.37330    0.53640    1.000
    C130     C        0.75660    0.42180    0.56050    1.000
    H95      H        0.74840    0.45670    0.54560    1.000
    C131     C        0.79300    0.41570    0.61150    1.000
    H96      H        0.81020    0.44690    0.62680    1.000
    C132     C        0.70370    0.36900    0.48200    1.000
    O47      O        0.69910    0.41560    0.45130    1.000
    O48      O        0.66720    0.31870    0.48220    1.000
    Zn7      Zn       0.30362    0.41248    0.62838    1.000
    Zn8      Zn       0.08743    0.19621    0.87132    1.000
    C133     C        0.24830    0.89060    0.61070    1.000
    C134     C        0.26920    0.94030    0.64580    1.000
    H97      H        0.23760    0.96370    0.65560    1.000
    H98      H        0.28530    0.92630    0.68020    1.000
    O49      O        0.30530    0.96970    0.62070    1.000
    C135     C        0.31170    0.02640    0.62670    1.000
    C136     C        0.32960    0.05530    0.58150    1.000
    H99      H        0.33640    0.03700    0.54790    1.000
    C137     C        0.33810    0.11480    0.58610    1.000
    H100     H        0.34930    0.13520    0.55510    1.000
    C138     C        0.32990    0.14110    0.63570    1.000
    C139     C        0.31060    0.11220    0.68110    1.000
    H101     H        0.30400    0.13040    0.71470    1.000
    C140     C        0.30050    0.05110    0.67590    1.000
    H102     H        0.28670    0.03050    0.70580    1.000
    C141     C        0.33320    0.20250    0.63880    1.000
    O50      O        0.35310    0.22540    0.59720    1.000
    O51      O        0.31910    0.22460    0.68240    1.000
    C142     C        0.21550    0.91220    0.56080    1.000
    H103     H        0.18340    0.93330    0.57360    1.000
    H104     H        0.23880    0.93680    0.53870    1.000
    O52      O        0.19860    0.87030    0.53000    1.000
    C143     C        0.18780    0.86950    0.47460    1.000
    C144     C        0.17170    0.91560    0.44770    1.000
    H105     H        0.16960    0.94970    0.46600    1.000
    C145     C        0.15770    0.91060    0.38900    1.000
    H106     H        0.13980    0.93990    0.37090    1.000
    C146     C        0.17080    0.86290    0.35970    1.000
    C147     C        0.18970    0.81810    0.38800    1.000
    H107     H        0.19590    0.78470    0.36910    1.000
    C148     C        0.20050    0.82120    0.44740    1.000
    H108     H        0.21580    0.79110    0.46650    1.000
    C149     C        0.16520    0.86200    0.29710    1.000
    O53      O        0.14680    0.90170    0.27430    1.000
    O54      O        0.18060    0.81550    0.27530    1.000
    C150     C        0.20510    0.85780    0.65060    1.000
    H109     H        0.18510    0.82890    0.63050    1.000
    H110     H        0.22370    0.84160    0.68270    1.000
    O55      O        0.17120    0.90010    0.66520    1.000
    C151     C        0.12690    0.88570    0.69940    1.000
    C152     C        0.11890    0.83300    0.71840    1.000
    H111     H        0.14510    0.80490    0.71240    1.000
    C153     C        0.06490    0.82230    0.74980    1.000
    H112     H        0.05140    0.78630    0.75550    1.000
    C154     C        0.03710    0.86830    0.76940    1.000
    C155     C        0.04630    0.92150    0.74990    1.000
    H113     H        0.02130    0.95020    0.75730    1.000
    C156     C        0.09660    0.93130    0.71720    1.000
    H114     H        0.10800    0.96740    0.70850    1.000
    C157     C        0.98290    0.86960    0.80200    1.000
    O56      O        0.95480    0.91380    0.80290    1.000
    O57      O        0.98130    0.81780    0.83060    1.000
    C158     C        0.29270    0.85090    0.59270    1.000
    H115     H        0.27730    0.82210    0.56880    1.000
    H116     H        0.32180    0.87040    0.57240    1.000
    O58      O        0.31380    0.82780    0.64150    1.000
    C159     C        0.36520    0.80060    0.63470    1.000
    C160     C        0.38520    0.77440    0.68140    1.000
    H117     H        0.36600    0.77700    0.71500    1.000
    C161     C        0.43780    0.74200    0.67750    1.000
    H118     H        0.45330    0.72600    0.70930    1.000
    C162     C        0.46360    0.73570    0.62670    1.000
    C163     C        0.43950    0.75660    0.57820    1.000
    H119     H        0.45440    0.74840    0.54330    1.000
    C164     C        0.38850    0.79300    0.58430    1.000
    H120     H        0.37320    0.81020    0.55310    1.000
    C165     C        0.51800    0.70370    0.63100    1.000
    O59      O        0.54870    0.69910    0.58440    1.000
    O60      O        0.51780    0.66720    0.68130    1.000
    Zn9      Zn       0.37162    0.30362    0.58752    1.000
    Zn10     Zn       0.12868    0.08743    0.80379    1.000
    C166     C        0.24830    0.10940    0.38930    1.000
    C167     C        0.26920    0.05970    0.35420    1.000
    H121     H        0.23760    0.03630    0.34440    1.000
    H122     H        0.28530    0.07370    0.31980    1.000
    O61      O        0.30530    0.03030    0.37930    1.000
    C168     C        0.31170    0.97360    0.37330    1.000
    C169     C        0.32960    0.94470    0.41850    1.000
    H123     H        0.33640    0.96300    0.45210    1.000
    C170     C        0.33810    0.88520    0.41390    1.000
    H124     H        0.34930    0.86480    0.44490    1.000
    C171     C        0.32990    0.85890    0.36430    1.000
    C172     C        0.31060    0.88780    0.31890    1.000
    H125     H        0.30400    0.86960    0.28530    1.000
    C173     C        0.30050    0.94890    0.32410    1.000
    H126     H        0.28670    0.96950    0.29420    1.000
    C174     C        0.33320    0.79750    0.36120    1.000
    O62      O        0.35310    0.77460    0.40280    1.000
    O63      O        0.31910    0.77540    0.31760    1.000
    C175     C        0.21550    0.08780    0.43920    1.000
    H127     H        0.18340    0.06670    0.42640    1.000
    H128     H        0.23880    0.06320    0.46130    1.000
    O64      O        0.19860    0.12970    0.47000    1.000
    C176     C        0.18780    0.13050    0.52540    1.000
    C177     C        0.17170    0.08440    0.55230    1.000
    H129     H        0.16960    0.05030    0.53400    1.000
    C178     C        0.15770    0.08940    0.61100    1.000
    H130     H        0.13980    0.06010    0.62910    1.000
    C179     C        0.17080    0.13710    0.64030    1.000
    C180     C        0.18970    0.18190    0.61200    1.000
    H131     H        0.19590    0.21530    0.63090    1.000
    C181     C        0.20050    0.17880    0.55260    1.000
    H132     H        0.21580    0.20890    0.53350    1.000
    C182     C        0.16520    0.13800    0.70290    1.000
    O65      O        0.14680    0.09830    0.72570    1.000
    O66      O        0.18060    0.18450    0.72470    1.000
    C183     C        0.20510    0.14220    0.34940    1.000
    H133     H        0.18510    0.17110    0.36950    1.000
    H134     H        0.22370    0.15840    0.31730    1.000
    O67      O        0.17120    0.09990    0.33480    1.000
    C184     C        0.12690    0.11430    0.30060    1.000
    C185     C        0.11890    0.16700    0.28160    1.000
    H135     H        0.14510    0.19510    0.28760    1.000
    C186     C        0.06490    0.17770    0.25020    1.000
    H136     H        0.05140    0.21370    0.24450    1.000
    C187     C        0.03710    0.13170    0.23060    1.000
    C188     C        0.04630    0.07850    0.25010    1.000
    H137     H        0.02130    0.04980    0.24270    1.000
    C189     C        0.09660    0.06870    0.28280    1.000
    H138     H        0.10800    0.03260    0.29150    1.000
    C190     C        0.98290    0.13040    0.19800    1.000
    O68      O        0.95480    0.08620    0.19710    1.000
    O69      O        0.98130    0.18220    0.16940    1.000
    C191     C        0.29270    0.14910    0.40730    1.000
    H139     H        0.27730    0.17790    0.43120    1.000
    H140     H        0.32180    0.12960    0.42760    1.000
    O70      O        0.31380    0.17220    0.35850    1.000
    C192     C        0.36520    0.19940    0.36530    1.000
    C193     C        0.38520    0.22560    0.31860    1.000
    H141     H        0.36600    0.22300    0.28500    1.000
    C194     C        0.43780    0.25800    0.32250    1.000
    H142     H        0.45330    0.27400    0.29070    1.000
    C195     C        0.46360    0.26430    0.37330    1.000
    C196     C        0.43950    0.24340    0.42180    1.000
    H143     H        0.45440    0.25160    0.45670    1.000
    C197     C        0.38850    0.20700    0.41570    1.000
    H144     H        0.37320    0.18980    0.44690    1.000
    C198     C        0.51800    0.29630    0.36900    1.000
    O71      O        0.54870    0.30090    0.41560    1.000
    O72      O        0.51780    0.33280    0.31870    1.000
    Zn11     Zn       0.37162    0.69638    0.41248    1.000
    Zn12     Zn       0.12868    0.91257    0.19621    1.000
    C199     C        0.75170    0.10940    0.61070    1.000
    C200     C        0.73080    0.05970    0.64580    1.000
    H145     H        0.76240    0.03630    0.65560    1.000
    H146     H        0.71470    0.07370    0.68020    1.000
    O73      O        0.69470    0.03030    0.62070    1.000
    C201     C        0.68830    0.97360    0.62670    1.000
    C202     C        0.67040    0.94470    0.58150    1.000
    H147     H        0.66360    0.96300    0.54790    1.000
    C203     C        0.66190    0.88520    0.58610    1.000
    H148     H        0.65070    0.86480    0.55510    1.000
    C204     C        0.67010    0.85890    0.63570    1.000
    C205     C        0.68940    0.88780    0.68110    1.000
    H149     H        0.69600    0.86960    0.71470    1.000
    C206     C        0.69950    0.94890    0.67590    1.000
    H150     H        0.71330    0.96950    0.70580    1.000
    C207     C        0.66680    0.79750    0.63880    1.000
    O74      O        0.64690    0.77460    0.59720    1.000
    O75      O        0.68090    0.77540    0.68240    1.000
    C208     C        0.78450    0.08780    0.56080    1.000
    H151     H        0.81660    0.06670    0.57360    1.000
    H152     H        0.76120    0.06320    0.53870    1.000
    O76      O        0.80140    0.12970    0.53000    1.000
    C209     C        0.81220    0.13050    0.47460    1.000
    C210     C        0.82830    0.08440    0.44770    1.000
    H153     H        0.83040    0.05030    0.46600    1.000
    C211     C        0.84230    0.08940    0.38900    1.000
    H154     H        0.86020    0.06010    0.37090    1.000
    C212     C        0.82920    0.13710    0.35970    1.000
    C213     C        0.81030    0.18190    0.38800    1.000
    H155     H        0.80410    0.21530    0.36910    1.000
    C214     C        0.79950    0.17880    0.44740    1.000
    H156     H        0.78420    0.20890    0.46650    1.000
    C215     C        0.83480    0.13800    0.29710    1.000
    O77      O        0.85320    0.09830    0.27430    1.000
    O78      O        0.81940    0.18450    0.27530    1.000
    C216     C        0.79490    0.14220    0.65060    1.000
    H157     H        0.81490    0.17110    0.63050    1.000
    H158     H        0.77630    0.15840    0.68270    1.000
    O79      O        0.82880    0.09990    0.66520    1.000
    C217     C        0.87310    0.11430    0.69940    1.000
    C218     C        0.88110    0.16700    0.71840    1.000
    H159     H        0.85490    0.19510    0.71240    1.000
    C219     C        0.93510    0.17770    0.74980    1.000
    H160     H        0.94860    0.21370    0.75550    1.000
    C220     C        0.96290    0.13170    0.76940    1.000
    C221     C        0.95370    0.07850    0.74990    1.000
    H161     H        0.97870    0.04980    0.75730    1.000
    C222     C        0.90340    0.06870    0.71720    1.000
    H162     H        0.89200    0.03260    0.70850    1.000
    C223     C        0.01710    0.13040    0.80200    1.000
    O80      O        0.04520    0.08620    0.80290    1.000
    O81      O        0.01870    0.18220    0.83060    1.000
    C224     C        0.70730    0.14910    0.59270    1.000
    H163     H        0.72270    0.17790    0.56880    1.000
    H164     H        0.67820    0.12960    0.57240    1.000
    O82      O        0.68620    0.17220    0.64150    1.000
    C225     C        0.63480    0.19940    0.63470    1.000
    C226     C        0.61480    0.22560    0.68140    1.000
    H165     H        0.63400    0.22300    0.71500    1.000
    C227     C        0.56220    0.25800    0.67750    1.000
    H166     H        0.54670    0.27400    0.70930    1.000
    C228     C        0.53640    0.26430    0.62670    1.000
    C229     C        0.56050    0.24340    0.57820    1.000
    H167     H        0.54560    0.25160    0.54330    1.000
    C230     C        0.61150    0.20700    0.58430    1.000
    H168     H        0.62680    0.18980    0.55310    1.000
    C231     C        0.48200    0.29630    0.63100    1.000
    O83      O        0.45130    0.30090    0.58440    1.000
    O84      O        0.48220    0.33280    0.68130    1.000
    Zn13     Zn       0.62838    0.69638    0.58752    1.000
    Zn14     Zn       0.87132    0.91257    0.80379    1.000
    C232     C        0.75170    0.89060    0.38930    1.000
    C233     C        0.73080    0.94030    0.35420    1.000
    H169     H        0.76240    0.96370    0.34440    1.000
    H170     H        0.71470    0.92630    0.31980    1.000
    O85      O        0.69470    0.96970    0.37930    1.000
    C234     C        0.68830    0.02640    0.37330    1.000
    C235     C        0.67040    0.05530    0.41850    1.000
    H171     H        0.66360    0.03700    0.45210    1.000
    C236     C        0.66190    0.11480    0.41390    1.000
    H172     H        0.65070    0.13520    0.44490    1.000
    C237     C        0.67010    0.14110    0.36430    1.000
    C238     C        0.68940    0.11220    0.31890    1.000
    H173     H        0.69600    0.13040    0.28530    1.000
    C239     C        0.69950    0.05110    0.32410    1.000
    H174     H        0.71330    0.03050    0.29420    1.000
    C240     C        0.66680    0.20250    0.36120    1.000
    O86      O        0.64690    0.22540    0.40280    1.000
    O87      O        0.68090    0.22460    0.31760    1.000
    C241     C        0.78450    0.91220    0.43920    1.000
    H175     H        0.81660    0.93330    0.42640    1.000
    H176     H        0.76120    0.93680    0.46130    1.000
    O88      O        0.80140    0.87030    0.47000    1.000
    C242     C        0.81220    0.86950    0.52540    1.000
    C243     C        0.82830    0.91560    0.55230    1.000
    H177     H        0.83040    0.94970    0.53400    1.000
    C244     C        0.84230    0.91060    0.61100    1.000
    H178     H        0.86020    0.93990    0.62910    1.000
    C245     C        0.82920    0.86290    0.64030    1.000
    C246     C        0.81030    0.81810    0.61200    1.000
    H179     H        0.80410    0.78470    0.63090    1.000
    C247     C        0.79950    0.82120    0.55260    1.000
    H180     H        0.78420    0.79110    0.53350    1.000
    C248     C        0.83480    0.86200    0.70290    1.000
    O89      O        0.85320    0.90170    0.72570    1.000
    O90      O        0.81940    0.81550    0.72470    1.000
    C249     C        0.79490    0.85780    0.34940    1.000
    H181     H        0.81490    0.82890    0.36950    1.000
    H182     H        0.77630    0.84160    0.31730    1.000
    O91      O        0.82880    0.90010    0.33480    1.000
    C250     C        0.87310    0.88570    0.30060    1.000
    C251     C        0.88110    0.83300    0.28160    1.000
    H183     H        0.85490    0.80490    0.28760    1.000
    C252     C        0.93510    0.82230    0.25020    1.000
    H184     H        0.94860    0.78630    0.24450    1.000
    C253     C        0.96290    0.86830    0.23060    1.000
    C254     C        0.95370    0.92150    0.25010    1.000
    H185     H        0.97870    0.95020    0.24270    1.000
    C255     C        0.90340    0.93130    0.28280    1.000
    H186     H        0.89200    0.96740    0.29150    1.000
    C256     C        0.01710    0.86960    0.19800    1.000
    O92      O        0.04520    0.91380    0.19710    1.000
    O93      O        0.01870    0.81780    0.16940    1.000
    C257     C        0.70730    0.85090    0.40730    1.000
    H187     H        0.72270    0.82210    0.43120    1.000
    H188     H        0.67820    0.87040    0.42760    1.000
    O94      O        0.68620    0.82780    0.35850    1.000
    C258     C        0.63480    0.80060    0.36530    1.000
    C259     C        0.61480    0.77440    0.31860    1.000
    H189     H        0.63400    0.77700    0.28500    1.000
    C260     C        0.56220    0.74200    0.32250    1.000
    H190     H        0.54670    0.72600    0.29070    1.000
    C261     C        0.53640    0.73570    0.37330    1.000
    C262     C        0.56050    0.75660    0.42180    1.000
    H191     H        0.54560    0.74840    0.45670    1.000
    C263     C        0.61150    0.79300    0.41570    1.000
    H192     H        0.62680    0.81020    0.44690    1.000
    C264     C        0.48200    0.70370    0.36900    1.000
    O95      O        0.45130    0.69910    0.41560    1.000
    O96      O        0.48220    0.66720    0.31870    1.000
    Zn15     Zn       0.62838    0.30362    0.41248    1.000
    Zn16     Zn       0.87132    0.08743    0.19621    1.000
    C265     C        0.61070    0.24830    0.89060    1.000
    C266     C        0.64580    0.26920    0.94030    1.000
    H193     H        0.65560    0.23760    0.96370    1.000
    H194     H        0.68020    0.28530    0.92630    1.000
    O97      O        0.62070    0.30530    0.96970    1.000
    C267     C        0.62670    0.31170    0.02640    1.000
    C268     C        0.58150    0.32960    0.05530    1.000
    H195     H        0.54790    0.33640    0.03700    1.000
    C269     C        0.58610    0.33810    0.11480    1.000
    H196     H        0.55510    0.34930    0.13520    1.000
    C270     C        0.63570    0.32990    0.14110    1.000
    C271     C        0.68110    0.31060    0.11220    1.000
    H197     H        0.71470    0.30400    0.13040    1.000
    C272     C        0.67590    0.30050    0.05110    1.000
    H198     H        0.70580    0.28670    0.03050    1.000
    C273     C        0.63880    0.33320    0.20250    1.000
    O98      O        0.59720    0.35310    0.22540    1.000
    O99      O        0.68240    0.31910    0.22460    1.000
    C274     C        0.56080    0.21550    0.91220    1.000
    H199     H        0.57360    0.18340    0.93330    1.000
    H200     H        0.53870    0.23880    0.93680    1.000
    O100     O        0.53000    0.19860    0.87030    1.000
    C275     C        0.47460    0.18780    0.86950    1.000
    C276     C        0.44770    0.17170    0.91560    1.000
    H201     H        0.46600    0.16960    0.94970    1.000
    C277     C        0.38900    0.15770    0.91060    1.000
    H202     H        0.37090    0.13980    0.93990    1.000
    C278     C        0.35970    0.17080    0.86290    1.000
    C279     C        0.38800    0.18970    0.81810    1.000
    H203     H        0.36910    0.19590    0.78470    1.000
    C280     C        0.44740    0.20050    0.82120    1.000
    H204     H        0.46650    0.21580    0.79110    1.000
    C281     C        0.29710    0.16520    0.86200    1.000
    O101     O        0.27430    0.14680    0.90170    1.000
    O102     O        0.27530    0.18060    0.81550    1.000
    C282     C        0.65060    0.20510    0.85780    1.000
    H205     H        0.63050    0.18510    0.82890    1.000
    H206     H        0.68270    0.22370    0.84160    1.000
    O103     O        0.66520    0.17120    0.90010    1.000
    C283     C        0.69940    0.12690    0.88570    1.000
    C284     C        0.71840    0.11890    0.83300    1.000
    H207     H        0.71240    0.14510    0.80490    1.000
    C285     C        0.74980    0.06490    0.82230    1.000
    H208     H        0.75550    0.05140    0.78630    1.000
    C286     C        0.76940    0.03710    0.86830    1.000
    C287     C        0.74990    0.04630    0.92150    1.000
    H209     H        0.75730    0.02130    0.95020    1.000
    C288     C        0.71720    0.09660    0.93130    1.000
    H210     H        0.70850    0.10800    0.96740    1.000
    C289     C        0.80200    0.98290    0.86960    1.000
    O104     O        0.80290    0.95480    0.91380    1.000
    O105     O        0.83060    0.98130    0.81780    1.000
    C290     C        0.59270    0.29270    0.85090    1.000
    H211     H        0.56880    0.27730    0.82210    1.000
    H212     H        0.57240    0.32180    0.87040    1.000
    O106     O        0.64150    0.31380    0.82780    1.000
    C291     C        0.63470    0.36520    0.80060    1.000
    C292     C        0.68140    0.38520    0.77440    1.000
    H213     H        0.71500    0.36600    0.77700    1.000
    C293     C        0.67750    0.43780    0.74200    1.000
    H214     H        0.70930    0.45330    0.72600    1.000
    C294     C        0.62670    0.46360    0.73570    1.000
    C295     C        0.57820    0.43950    0.75660    1.000
    H215     H        0.54330    0.45440    0.74840    1.000
    C296     C        0.58430    0.38850    0.79300    1.000
    H216     H        0.55310    0.37320    0.81020    1.000
    C297     C        0.63100    0.51800    0.70370    1.000
    O107     O        0.58440    0.54870    0.69910    1.000
    O108     O        0.68130    0.51780    0.66720    1.000
    Zn17     Zn       0.58752    0.37162    0.30362    1.000
    Zn18     Zn       0.80379    0.12868    0.08743    1.000
    C298     C        0.38930    0.24830    0.10940    1.000
    C299     C        0.35420    0.26920    0.05970    1.000
    H217     H        0.34440    0.23760    0.03630    1.000
    H218     H        0.31980    0.28530    0.07370    1.000
    O109     O        0.37930    0.30530    0.03030    1.000
    C300     C        0.37330    0.31170    0.97360    1.000
    C301     C        0.41850    0.32960    0.94470    1.000
    H219     H        0.45210    0.33640    0.96300    1.000
    C302     C        0.41390    0.33810    0.88520    1.000
    H220     H        0.44490    0.34930    0.86480    1.000
    C303     C        0.36430    0.32990    0.85890    1.000
    C304     C        0.31890    0.31060    0.88780    1.000
    H221     H        0.28530    0.30400    0.86960    1.000
    C305     C        0.32410    0.30050    0.94890    1.000
    H222     H        0.29420    0.28670    0.96950    1.000
    C306     C        0.36120    0.33320    0.79750    1.000
    O110     O        0.40280    0.35310    0.77460    1.000
    O111     O        0.31760    0.31910    0.77540    1.000
    C307     C        0.43920    0.21550    0.08780    1.000
    H223     H        0.42640    0.18340    0.06670    1.000
    H224     H        0.46130    0.23880    0.06320    1.000
    O112     O        0.47000    0.19860    0.12970    1.000
    C308     C        0.52540    0.18780    0.13050    1.000
    C309     C        0.55230    0.17170    0.08440    1.000
    H225     H        0.53400    0.16960    0.05030    1.000
    C310     C        0.61100    0.15770    0.08940    1.000
    H226     H        0.62910    0.13980    0.06010    1.000
    C311     C        0.64030    0.17080    0.13710    1.000
    C312     C        0.61200    0.18970    0.18190    1.000
    H227     H        0.63090    0.19590    0.21530    1.000
    C313     C        0.55260    0.20050    0.17880    1.000
    H228     H        0.53350    0.21580    0.20890    1.000
    C314     C        0.70290    0.16520    0.13800    1.000
    O113     O        0.72570    0.14680    0.09830    1.000
    O114     O        0.72470    0.18060    0.18450    1.000
    C315     C        0.34940    0.20510    0.14220    1.000
    H229     H        0.36950    0.18510    0.17110    1.000
    H230     H        0.31730    0.22370    0.15840    1.000
    O115     O        0.33480    0.17120    0.09990    1.000
    C316     C        0.30060    0.12690    0.11430    1.000
    C317     C        0.28160    0.11890    0.16700    1.000
    H231     H        0.28760    0.14510    0.19510    1.000
    C318     C        0.25020    0.06490    0.17770    1.000
    H232     H        0.24450    0.05140    0.21370    1.000
    C319     C        0.23060    0.03710    0.13170    1.000
    C320     C        0.25010    0.04630    0.07850    1.000
    H233     H        0.24270    0.02130    0.04980    1.000
    C321     C        0.28280    0.09660    0.06870    1.000
    H234     H        0.29150    0.10800    0.03260    1.000
    C322     C        0.19800    0.98290    0.13040    1.000
    O116     O        0.19710    0.95480    0.08620    1.000
    O117     O        0.16940    0.98130    0.18220    1.000
    C323     C        0.40730    0.29270    0.14910    1.000
    H235     H        0.43120    0.27730    0.17790    1.000
    H236     H        0.42760    0.32180    0.12960    1.000
    O118     O        0.35850    0.31380    0.17220    1.000
    C324     C        0.36530    0.36520    0.19940    1.000
    C325     C        0.31860    0.38520    0.22560    1.000
    H237     H        0.28500    0.36600    0.22300    1.000
    C326     C        0.32250    0.43780    0.25800    1.000
    H238     H        0.29070    0.45330    0.27400    1.000
    C327     C        0.37330    0.46360    0.26430    1.000
    C328     C        0.42180    0.43950    0.24340    1.000
    H239     H        0.45670    0.45440    0.25160    1.000
    C329     C        0.41570    0.38850    0.20700    1.000
    H240     H        0.44690    0.37320    0.18980    1.000
    C330     C        0.36900    0.51800    0.29630    1.000
    O119     O        0.41560    0.54870    0.30090    1.000
    O120     O        0.31870    0.51780    0.33280    1.000
    Zn19     Zn       0.41248    0.37162    0.69638    1.000
    Zn20     Zn       0.19621    0.12868    0.91257    1.000
    C331     C        0.61070    0.75170    0.10940    1.000
    C332     C        0.64580    0.73080    0.05970    1.000
    H241     H        0.65560    0.76240    0.03630    1.000
    H242     H        0.68020    0.71470    0.07370    1.000
    O121     O        0.62070    0.69470    0.03030    1.000
    C333     C        0.62670    0.68830    0.97360    1.000
    C334     C        0.58150    0.67040    0.94470    1.000
    H243     H        0.54790    0.66360    0.96300    1.000
    C335     C        0.58610    0.66190    0.88520    1.000
    H244     H        0.55510    0.65070    0.86480    1.000
    C336     C        0.63570    0.67010    0.85890    1.000
    C337     C        0.68110    0.68940    0.88780    1.000
    H245     H        0.71470    0.69600    0.86960    1.000
    C338     C        0.67590    0.69950    0.94890    1.000
    H246     H        0.70580    0.71330    0.96950    1.000
    C339     C        0.63880    0.66680    0.79750    1.000
    O122     O        0.59720    0.64690    0.77460    1.000
    O123     O        0.68240    0.68090    0.77540    1.000
    C340     C        0.56080    0.78450    0.08780    1.000
    H247     H        0.57360    0.81660    0.06670    1.000
    H248     H        0.53870    0.76120    0.06320    1.000
    O124     O        0.53000    0.80140    0.12970    1.000
    C341     C        0.47460    0.81220    0.13050    1.000
    C342     C        0.44770    0.82830    0.08440    1.000
    H249     H        0.46600    0.83040    0.05030    1.000
    C343     C        0.38900    0.84230    0.08940    1.000
    H250     H        0.37090    0.86020    0.06010    1.000
    C344     C        0.35970    0.82920    0.13710    1.000
    C345     C        0.38800    0.81030    0.18190    1.000
    H251     H        0.36910    0.80410    0.21530    1.000
    C346     C        0.44740    0.79950    0.17880    1.000
    H252     H        0.46650    0.78420    0.20890    1.000
    C347     C        0.29710    0.83480    0.13800    1.000
    O125     O        0.27430    0.85320    0.09830    1.000
    O126     O        0.27530    0.81940    0.18450    1.000
    C348     C        0.65060    0.79490    0.14220    1.000
    H253     H        0.63050    0.81490    0.17110    1.000
    H254     H        0.68270    0.77630    0.15840    1.000
    O127     O        0.66520    0.82880    0.09990    1.000
    C349     C        0.69940    0.87310    0.11430    1.000
    C350     C        0.71840    0.88110    0.16700    1.000
    H255     H        0.71240    0.85490    0.19510    1.000
    C351     C        0.74980    0.93510    0.17770    1.000
    H256     H        0.75550    0.94860    0.21370    1.000
    C352     C        0.76940    0.96290    0.13170    1.000
    C353     C        0.74990    0.95370    0.07850    1.000
    H257     H        0.75730    0.97870    0.04980    1.000
    C354     C        0.71720    0.90340    0.06870    1.000
    H258     H        0.70850    0.89200    0.03260    1.000
    C355     C        0.80200    0.01710    0.13040    1.000
    O128     O        0.80290    0.04520    0.08620    1.000
    O129     O        0.83060    0.01870    0.18220    1.000
    C356     C        0.59270    0.70730    0.14910    1.000
    H259     H        0.56880    0.72270    0.17790    1.000
    H260     H        0.57240    0.67820    0.12960    1.000
    O130     O        0.64150    0.68620    0.17220    1.000
    C357     C        0.63470    0.63480    0.19940    1.000
    C358     C        0.68140    0.61480    0.22560    1.000
    H261     H        0.71500    0.63400    0.22300    1.000
    C359     C        0.67750    0.56220    0.25800    1.000
    H262     H        0.70930    0.54670    0.27400    1.000
    C360     C        0.62670    0.53640    0.26430    1.000
    C361     C        0.57820    0.56050    0.24340    1.000
    H263     H        0.54330    0.54560    0.25160    1.000
    C362     C        0.58430    0.61150    0.20700    1.000
    H264     H        0.55310    0.62680    0.18980    1.000
    C363     C        0.63100    0.48200    0.29630    1.000
    O131     O        0.58440    0.45130    0.30090    1.000
    O132     O        0.68130    0.48220    0.33280    1.000
    Zn21     Zn       0.58752    0.62838    0.69638    1.000
    Zn22     Zn       0.80379    0.87132    0.91257    1.000
    C364     C        0.38930    0.75170    0.89060    1.000
    C365     C        0.35420    0.73080    0.94030    1.000
    H265     H        0.34440    0.76240    0.96370    1.000
    H266     H        0.31980    0.71470    0.92630    1.000
    O133     O        0.37930    0.69470    0.96970    1.000
    C366     C        0.37330    0.68830    0.02640    1.000
    C367     C        0.41850    0.67040    0.05530    1.000
    H267     H        0.45210    0.66360    0.03700    1.000
    C368     C        0.41390    0.66190    0.11480    1.000
    H268     H        0.44490    0.65070    0.13520    1.000
    C369     C        0.36430    0.67010    0.14110    1.000
    C370     C        0.31890    0.68940    0.11220    1.000
    H269     H        0.28530    0.69600    0.13040    1.000
    C371     C        0.32410    0.69950    0.05110    1.000
    H270     H        0.29420    0.71330    0.03050    1.000
    C372     C        0.36120    0.66680    0.20250    1.000
    O134     O        0.40280    0.64690    0.22540    1.000
    O135     O        0.31760    0.68090    0.22460    1.000
    C373     C        0.43920    0.78450    0.91220    1.000
    H271     H        0.42640    0.81660    0.93330    1.000
    H272     H        0.46130    0.76120    0.93680    1.000
    O136     O        0.47000    0.80140    0.87030    1.000
    C374     C        0.52540    0.81220    0.86950    1.000
    C375     C        0.55230    0.82830    0.91560    1.000
    H273     H        0.53400    0.83040    0.94970    1.000
    C376     C        0.61100    0.84230    0.91060    1.000
    H274     H        0.62910    0.86020    0.93990    1.000
    C377     C        0.64030    0.82920    0.86290    1.000
    C378     C        0.61200    0.81030    0.81810    1.000
    H275     H        0.63090    0.80410    0.78470    1.000
    C379     C        0.55260    0.79950    0.82120    1.000
    H276     H        0.53350    0.78420    0.79110    1.000
    C380     C        0.70290    0.83480    0.86200    1.000
    O137     O        0.72570    0.85320    0.90170    1.000
    O138     O        0.72470    0.81940    0.81550    1.000
    C381     C        0.34940    0.79490    0.85780    1.000
    H277     H        0.36950    0.81490    0.82890    1.000
    H278     H        0.31730    0.77630    0.84160    1.000
    O139     O        0.33480    0.82880    0.90010    1.000
    C382     C        0.30060    0.87310    0.88570    1.000
    C383     C        0.28160    0.88110    0.83300    1.000
    H279     H        0.28760    0.85490    0.80490    1.000
    C384     C        0.25020    0.93510    0.82230    1.000
    H280     H        0.24450    0.94860    0.78630    1.000
    C385     C        0.23060    0.96290    0.86830    1.000
    C386     C        0.25010    0.95370    0.92150    1.000
    H281     H        0.24270    0.97870    0.95020    1.000
    C387     C        0.28280    0.90340    0.93130    1.000
    H282     H        0.29150    0.89200    0.96740    1.000
    C388     C        0.19800    0.01710    0.86960    1.000
    O140     O        0.19710    0.04520    0.91380    1.000
    O141     O        0.16940    0.01870    0.81780    1.000
    C389     C        0.40730    0.70730    0.85090    1.000
    H283     H        0.43120    0.72270    0.82210    1.000
    H284     H        0.42760    0.67820    0.87040    1.000
    O142     O        0.35850    0.68620    0.82780    1.000
    C390     C        0.36530    0.63480    0.80060    1.000
    C391     C        0.31860    0.61480    0.77440    1.000
    H285     H        0.28500    0.63400    0.77700    1.000
    C392     C        0.32250    0.56220    0.74200    1.000
    H286     H        0.29070    0.54670    0.72600    1.000
    C393     C        0.37330    0.53640    0.73570    1.000
    C394     C        0.42180    0.56050    0.75660    1.000
    H287     H        0.45670    0.54560    0.74840    1.000
    C395     C        0.41570    0.61150    0.79300    1.000
    H288     H        0.44690    0.62680    0.81020    1.000
    C396     C        0.36900    0.48200    0.70370    1.000
    O143     O        0.41560    0.45130    0.69910    1.000
    O144     O        0.31870    0.48220    0.66720    1.000
    Zn23     Zn       0.41248    0.62838    0.30362    1.000
    Zn24     Zn       0.19621    0.87132    0.08743    1.000
    O145     O        0.34880    0.65120    0.34880    1.000
    O146     O        0.15190    0.84810    0.15190    1.000
    Zn25     Zn       0.30317    0.69683    0.30317    1.000
    Zn26     Zn       0.19636    0.80364    0.19636    1.000
    O147     O        0.65120    0.34880    0.34880    1.000
    O148     O        0.84810    0.15190    0.15190    1.000
    Zn27     Zn       0.69683    0.30317    0.30317    1.000
    Zn28     Zn       0.80364    0.19636    0.19636    1.000
    O149     O        0.65120    0.65120    0.65120    1.000
    O150     O        0.84810    0.84810    0.84810    1.000
    Zn29     Zn       0.69683    0.69683    0.69683    1.000
    Zn30     Zn       0.80364    0.80364    0.80364    1.000
    O151     O        0.34880    0.34880    0.65120    1.000
    O152     O        0.15190    0.15190    0.84810    1.000
    Zn31     Zn       0.30317    0.30317    0.69683    1.000
    Zn32     Zn       0.19636    0.19636    0.80364    1.000
