# CIF file generated by openbabel 3.1.0, see https://openbabel.org
data_I
_chemical_name_common 'image0'
_cell_length_a 15.764
_cell_length_b 15.764
_cell_length_c 16.918
_cell_angle_alpha 90
_cell_angle_beta 90
_cell_angle_gamma 120
_space_group_name_H-M_alt 'P 1'
_space_group_name_Hall 'P 1'
loop_
    _symmetry_equiv_pos_as_xyz
    x,y,z
loop_
    _atom_site_label
    _atom_site_type_symbol
    _atom_site_fract_x
    _atom_site_fract_y
    _atom_site_fract_z
    _atom_site_occupancy
    Cu1      Cu       0.16724    0.80622    0.21613    1.000
    Cu2      Cu       0.84722    0.69451    0.55010    1.000
    Cu3      Cu       0.52723    0.49964    0.21141    1.000
    O1       O        0.29380    0.10150    0.99140    1.000
    O2       O        0.45780    0.18090    0.98800    1.000
    O3       O        0.81490    0.87370    0.98420    1.000
    O4       O        0.65330    0.79670    0.99010    1.000
    O5       O        0.88210    0.67800    0.44070    1.000
    O6       O        0.80070    0.51180    0.44790    1.000
    O7       O        0.48630    0.63170    0.31370    1.000
    O8       O        0.56520    0.54670    0.31940    1.000
    O9       O        0.48380    0.45490    0.10290    1.000
    O10      O        0.40280    0.53320    0.10650    1.000
    O11      O        0.24070    0.37050    0.43960    1.000
    O12      O        0.15800    0.20520    0.44110    1.000
    N1       N        0.29100    0.92710    0.17690    1.000
    N2       N        0.30970    0.27720    0.91900    1.000
    N3       N        0.72860    0.70360    0.51040    1.000
    N4       N        0.64990    0.62160    0.17330    1.000
    N5       N        0.40830    0.37670    0.24850    1.000
    N6       N        0.04390    0.68030    0.25390    1.000
    C1       C        0.37750    0.95470    0.21180    1.000
    H1       H        0.37780    0.91960    0.25740    1.000
    C2       C        0.46260    0.02770    0.18700    1.000
    H2       H        0.52240    0.03950    0.21020    1.000
    C3       C        0.46200    0.08510    0.12770    1.000
    H3       H        0.52140    0.14200    0.11310    1.000
    C4       C        0.37940    0.06330    0.08930    1.000
    C5       C        0.29160    0.98100    0.11680    1.000
    H4       H        0.23150    0.96420    0.09120    1.000
    C6       C        0.01730    0.59590    0.21440    1.000
    H5       H        0.05490    0.59620    0.17030    1.000
    C7       C        0.93540    0.50860    0.23780    1.000
    H6       H        0.91520    0.45050    0.20800    1.000
    C8       C        0.88460    0.50660    0.30280    1.000
    H7       H        0.83080    0.44640    0.32040    1.000
    C9       C        0.91050    0.59060    0.34320    1.000
    C10      C        0.99090    0.67720    0.31520    1.000
    H8       H        0.00800    0.73680    0.34170    1.000
    C11      C        0.85850    0.59140    0.41800    1.000
    C12      C        0.67480    0.65420    0.44890    1.000
    H9       H        0.68790    0.60770    0.42450    1.000
    C13      C        0.60020    0.66660    0.41820    1.000
    C14      C        0.58240    0.73460    0.45190    1.000
    H10      H        0.53170    0.74500    0.43250    1.000
    C15      C        0.63980    0.78830    0.51530    1.000
    H11      H        0.62750    0.83500    0.54030    1.000
    C16      C        0.71350    0.77510    0.54190    1.000
    H12      H        0.75500    0.81570    0.58300    1.000
    C17      C        0.54290    0.60940    0.34540    1.000
    C18      C        0.65200    0.67580    0.11290    1.000
    H13      H        0.59260    0.65640    0.08520    1.000
    C19      C        0.73680    0.76030    0.08750    1.000
    C20      C        0.82200    0.78660    0.12770    1.000
    H14      H        0.88160    0.84190    0.11110    1.000
    C21      C        0.82120    0.73210    0.19290    1.000
    H15      H        0.87940    0.75080    0.22210    1.000
    C22      C        0.73460    0.65080    0.21420    1.000
    H16      H        0.73380    0.61380    0.25880    1.000
    C23      C        0.42120    0.47120    0.07730    1.000
    C24      C        0.36220    0.41560    0.00470    1.000
    C25      C        0.30710    0.44630    0.96160    1.000
    H17      H        0.30720    0.50470    0.97570    1.000
    C26      C        0.25170    0.39010    0.89740    1.000
    H18      H        0.21370    0.40920    0.86650    1.000
    C27      C        0.25440    0.30700    0.88090    1.000
    H19      H        0.21410    0.26690    0.83910    1.000
    C28      C        0.36070    0.33000    0.98170    1.000
    H20      H        0.39720    0.30820    0.01170    1.000
    C29      C        0.38420    0.28550    0.21800    1.000
    H21      H        0.42230    0.28460    0.17480    1.000
    C30      C        0.31430    0.20080    0.24310    1.000
    H22      H        0.30340    0.14180    0.21880    1.000
    C31      C        0.25540    0.19820    0.30670    1.000
    H23      H        0.20270    0.13750    0.32460    1.000
    C32      C        0.27410    0.28090    0.34120    1.000
    C33      C        0.35240    0.37330    0.31050    1.000
    H24      H        0.36460    0.43280    0.33470    1.000
    C34      C        0.21990    0.28450    0.41310    1.000
    C35      C        0.73770    0.81610    0.01480    1.000
    C36      C        0.37830    0.12300    0.01690    1.000
    Cu4      Cu       0.19378    0.36102    0.54946    1.000
    Cu5      Cu       0.30549    0.15271    0.88343    1.000
    Cu6      Cu       0.50036    0.02759    0.54474    1.000
    O13      O        0.89850    0.19230    0.32473    1.000
    O14      O        0.81910    0.27690    0.32133    1.000
    O15      O        0.12630    0.94120    0.31753    1.000
    O16      O        0.20330    0.85660    0.32343    1.000
    O17      O        0.32200    0.20410    0.77403    1.000
    O18      O        0.48820    0.28890    0.78123    1.000
    O19      O        0.36830    0.85460    0.64703    1.000
    O20      O        0.45330    0.01850    0.65273    1.000
    O21      O        0.54510    0.02890    0.43623    1.000
    O22      O        0.46680    0.86960    0.43983    1.000
    O23      O        0.62950    0.87020    0.77293    1.000
    O24      O        0.79480    0.95280    0.77443    1.000
    N7       N        0.07290    0.36390    0.51023    1.000
    N8       N        0.72280    0.03250    0.25233    1.000
    N9       N        0.29640    0.02500    0.84373    1.000
    N10      N        0.37840    0.02830    0.50663    1.000
    N11      N        0.62330    0.03160    0.58183    1.000
    N12      N        0.31970    0.36360    0.58723    1.000
    C37      C        0.04530    0.42280    0.54513    1.000
    H25      H        0.08040    0.45820    0.59073    1.000
    C38      C        0.97230    0.43490    0.52033    1.000
    H26      H        0.96050    0.48290    0.54353    1.000
    C39      C        0.91490    0.37690    0.46103    1.000
    H27      H        0.85800    0.37940    0.44643    1.000
    C40      C        0.93670    0.31610    0.42263    1.000
    C41      C        0.01900    0.31060    0.45013    1.000
    H28      H        0.03580    0.26730    0.42453    1.000
    C42      C        0.40410    0.42140    0.54773    1.000
    H29      H        0.40380    0.45870    0.50363    1.000
    C43      C        0.49140    0.42680    0.57113    1.000
    H30      H        0.54950    0.46470    0.54133    1.000
    C44      C        0.49340    0.37800    0.63613    1.000
    H31      H        0.55360    0.38440    0.65373    1.000
    C45      C        0.40940    0.31990    0.67653    1.000
    C46      C        0.32280    0.31370    0.64853    1.000
    H32      H        0.26320    0.27120    0.67503    1.000
    C47      C        0.40860    0.26710    0.75133    1.000
    C48      C        0.34580    0.02060    0.78223    1.000
    H33      H        0.39230    0.08020    0.75783    1.000
    C49      C        0.33340    0.93360    0.75153    1.000
    C50      C        0.26540    0.84780    0.78523    1.000
    H34      H        0.25500    0.78670    0.76583    1.000
    C51      C        0.21170    0.85150    0.84863    1.000
    H35      H        0.16500    0.79250    0.87363    1.000
    C52      C        0.22490    0.93840    0.87523    1.000
    H36      H        0.18430    0.93930    0.91633    1.000
    C53      C        0.39060    0.93350    0.67873    1.000
    C54      C        0.32420    0.97620    0.44623    1.000
    H37      H        0.34360    0.93620    0.41853    1.000
    C55      C        0.23970    0.97650    0.42083    1.000
    C56      C        0.21340    0.03540    0.46103    1.000
    H38      H        0.15810    0.03970    0.44443    1.000
    C57      C        0.26790    0.08910    0.52623    1.000
    H39      H        0.24920    0.12860    0.55543    1.000
    C58      C        0.34920    0.08380    0.54753    1.000
    H40      H        0.38620    0.12000    0.59213    1.000
    C59      C        0.52880    0.95000    0.41063    1.000
    C60      C        0.58440    0.94660    0.33803    1.000
    C61      C        0.55370    0.86080    0.29493    1.000
    H41      H        0.49530    0.80250    0.30903    1.000
    C62      C        0.60990    0.86160    0.23073    1.000
    H42      H        0.59080    0.80450    0.19983    1.000
    C63      C        0.69300    0.94740    0.21423    1.000
    H43      H        0.73310    0.94720    0.17243    1.000
    C64      C        0.67000    0.03070    0.31503    1.000
    H44      H        0.69180    0.08900    0.34503    1.000
    C65      C        0.71450    0.09870    0.55133    1.000
    H45      H        0.71540    0.13770    0.50813    1.000
    C66      C        0.79920    0.11350    0.57643    1.000
    H46      H        0.85820    0.16160    0.55213    1.000
    C67      C        0.80180    0.05720    0.64003    1.000
    H47      H        0.86250    0.06520    0.65793    1.000
    C68      C        0.71910    0.99320    0.67453    1.000
    C69      C        0.62670    0.97910    0.64383    1.000
    H48      H        0.56720    0.93180    0.66803    1.000
    C70      C        0.71550    0.93540    0.74643    1.000
    C71      C        0.18390    0.92160    0.34813    1.000
    C72      C        0.87700    0.25530    0.35023    1.000
    Cu7      Cu       0.63898    0.83276    0.88280    1.000
    Cu8      Cu       0.84729    0.15278    0.21677    1.000
    Cu9      Cu       0.97241    0.47277    0.87808    1.000
    O25      O        0.80770    0.70620    0.65807    1.000
    O26      O        0.72310    0.54220    0.65467    1.000
    O27      O        0.05880    0.18510    0.65087    1.000
    O28      O        0.14340    0.34670    0.65677    1.000
    O29      O        0.79590    0.11790    0.10737    1.000
    O30      O        0.71110    0.19930    0.11457    1.000
    O31      O        0.14540    0.51370    0.98037    1.000
    O32      O        0.98150    0.43480    0.98607    1.000
    O33      O        0.97110    0.51620    0.76957    1.000
    O34      O        0.13040    0.59720    0.77317    1.000
    O35      O        0.12980    0.75930    0.10627    1.000
    O36      O        0.04720    0.84200    0.10777    1.000
    N13      N        0.63610    0.70900    0.84357    1.000
    N14      N        0.96750    0.69030    0.58567    1.000
    N15      N        0.97500    0.27140    0.17707    1.000
    N16      N        0.97170    0.35010    0.83997    1.000
    N17      N        0.96840    0.59170    0.91517    1.000
    N18      N        0.63640    0.95610    0.92057    1.000
    C73      C        0.57720    0.62250    0.87847    1.000
    H49      H        0.54180    0.62220    0.92407    1.000
    C74      C        0.56510    0.53740    0.85367    1.000
    H50      H        0.51710    0.47760    0.87687    1.000
    C75      C        0.62310    0.53800    0.79437    1.000
    H51      H        0.62060    0.47860    0.77977    1.000
    C76      C        0.68390    0.62060    0.75597    1.000
    C77      C        0.68940    0.70840    0.78347    1.000
    H52      H        0.73270    0.76850    0.75787    1.000
    C78      C        0.57860    0.98270    0.88107    1.000
    H53      H        0.54130    0.94510    0.83697    1.000
    C79      C        0.57320    0.06460    0.90447    1.000
    H54      H        0.53530    0.08480    0.87467    1.000
    C80      C        0.62200    0.11540    0.96947    1.000
    H55      H        0.61560    0.16920    0.98707    1.000
    C81      C        0.68010    0.08950    0.00987    1.000
    C82      C        0.68630    0.00910    0.98187    1.000
    H56      H        0.72880    0.99200    0.00837    1.000
    C83      C        0.73290    0.14150    0.08467    1.000
    C84      C        0.97940    0.32520    0.11557    1.000
    H57      H        0.91980    0.31210    0.09117    1.000
    C85      C        0.06640    0.39980    0.08487    1.000
    C86      C        0.15220    0.41760    0.11857    1.000
    H58      H        0.21330    0.46830    0.09917    1.000
    C87      C        0.14850    0.36020    0.18197    1.000
    H59      H        0.20750    0.37250    0.20697    1.000
    C88      C        0.06160    0.28650    0.20857    1.000
    H60      H        0.06070    0.24500    0.24967    1.000
    C89      C        0.06650    0.45710    0.01207    1.000
    C90      C        0.02380    0.34800    0.77957    1.000
    H61      H        0.06380    0.40740    0.75187    1.000
    C91      C        0.02350    0.26320    0.75417    1.000
    C92      C        0.96460    0.17800    0.79437    1.000
    H62      H        0.96030    0.11840    0.77777    1.000
    C93      C        0.91090    0.17880    0.85957    1.000
    H63      H        0.87140    0.12060    0.88877    1.000
    C94      C        0.91620    0.26540    0.88087    1.000
    H64      H        0.88000    0.26620    0.92547    1.000
    C95      C        0.05000    0.57880    0.74397    1.000
    C96      C        0.05340    0.63780    0.67137    1.000
    C97      C        0.13920    0.69290    0.62827    1.000
    H65      H        0.19750    0.69280    0.64237    1.000
    C98      C        0.13840    0.74830    0.56407    1.000
    H66      H        0.19550    0.78630    0.53317    1.000
    C99      C        0.05260    0.74560    0.54757    1.000
    H67      H        0.05280    0.78590    0.50577    1.000
    C100     C        0.96930    0.63930    0.64837    1.000
    H68      H        0.91100    0.60280    0.67837    1.000
    C101     C        0.90130    0.61580    0.88467    1.000
    H69      H        0.86230    0.57770    0.84147    1.000
    C102     C        0.88650    0.68570    0.90977    1.000
    H70      H        0.83840    0.69660    0.88547    1.000
    C103     C        0.94280    0.74460    0.97337    1.000
    H71      H        0.93480    0.79730    0.99127    1.000
    C104     C        0.00680    0.72590    0.00787    1.000
    C105     C        0.02090    0.64760    0.97717    1.000
    H72      H        0.06820    0.63540    0.00137    1.000
    C106     C        0.06460    0.78010    0.07977    1.000
    C107     C        0.07840    0.26230    0.68147    1.000
    C108     C        0.74470    0.62170    0.68357    1.000
