# CIF file generated by openbabel 3.1.0, see https://openbabel.org
data_I
_chemical_name_common 'image0'
_cell_length_a 5.3881
_cell_length_b 14.1175
_cell_length_c 11.4098
_cell_angle_alpha 90
_cell_angle_beta 101.187
_cell_angle_gamma 90
_space_group_name_H-M_alt 'P 1'
_space_group_name_Hall 'P 1'
loop_
    _symmetry_equiv_pos_as_xyz
    x,y,z
loop_
    _atom_site_label
    _atom_site_type_symbol
    _atom_site_fract_x
    _atom_site_fract_y
    _atom_site_fract_z
    _atom_site_occupancy
    O1       O        0.84160    0.43920    0.92720    1.000
    O2       O        0.44040    0.39530    0.91360    1.000
    C1       C        0.68970    0.30660    0.80610    1.000
    C2       C        0.65360    0.38670    0.89020    1.000
    N1       N        0.72210    0.16420    0.63830    1.000
    C3       C        0.55020    0.16090    0.70830    1.000
    H1       H        0.43780    0.10840    0.70030    1.000
    C4       C        0.87650    0.30820    0.73870    1.000
    H2       H        0.99950    0.35720    0.74940    1.000
    C5       C        0.88250    0.23710    0.65500    1.000
    H3       H        0.00790    0.24060    0.60690    1.000
    C6       C        0.52720    0.22970    0.79180    1.000
    H4       H        0.40080    0.22430    0.83890    1.000
    Li1      Li       0.20520    0.43660    0.00350    1.000
    O3       O        0.65840    0.93920    0.57280    1.000
    O4       O        0.05960    0.89530    0.58640    1.000
    C7       C        0.81030    0.80660    0.69390    1.000
    C8       C        0.84640    0.88670    0.60980    1.000
    N2       N        0.77790    0.66420    0.86170    1.000
    C9       C        0.94980    0.66090    0.79170    1.000
    H5       H        0.06220    0.60840    0.79970    1.000
    C10      C        0.62350    0.80820    0.76130    1.000
    H6       H        0.50050    0.85720    0.75060    1.000
    C11      C        0.61750    0.73710    0.84500    1.000
    H7       H        0.49210    0.74060    0.89310    1.000
    C12      C        0.97280    0.72970    0.70820    1.000
    H8       H        0.09920    0.72430    0.66110    1.000
    Li2      Li       0.29480    0.93660    0.49650    1.000
    O5       O        0.15840    0.56080    0.07280    1.000
    O6       O        0.55960    0.60470    0.08640    1.000
    C13      C        0.31030    0.69340    0.19390    1.000
    C14      C        0.34640    0.61330    0.10980    1.000
    N3       N        0.27790    0.83580    0.36170    1.000
    C15      C        0.44980    0.83910    0.29170    1.000
    H9       H        0.56220    0.89160    0.29970    1.000
    C16      C        0.12350    0.69180    0.26130    1.000
    H10      H        0.00050    0.64280    0.25060    1.000
    C17      C        0.11750    0.76290    0.34500    1.000
    H11      H        0.99210    0.75940    0.39310    1.000
    C18      C        0.47280    0.77030    0.20820    1.000
    H12      H        0.59920    0.77570    0.16110    1.000
    Li3      Li       0.79480    0.56340    0.99650    1.000
    O7       O        0.34160    0.06080    0.42720    1.000
    O8       O        0.94040    0.10470    0.41360    1.000
    C19      C        0.18970    0.19340    0.30610    1.000
    C20      C        0.15360    0.11330    0.39020    1.000
    N4       N        0.22210    0.33580    0.13830    1.000
    C21      C        0.05020    0.33910    0.20830    1.000
    H13      H        0.93780    0.39160    0.20030    1.000
    C22      C        0.37650    0.19180    0.23870    1.000
    H14      H        0.49950    0.14280    0.24940    1.000
    C23      C        0.38250    0.26290    0.15500    1.000
    H15      H        0.50790    0.25940    0.10690    1.000
    C24      C        0.02720    0.27030    0.29180    1.000
    H16      H        0.90080    0.27570    0.33890    1.000
    Li4      Li       0.70520    0.06340    0.50350    1.000
