# CIF file generated by openbabel 3.1.0, see https://openbabel.org
data_I
_chemical_name_common 'image0'
_cell_length_a 10.445
_cell_length_b 10.636
_cell_length_c 11.326
_cell_angle_alpha 83.28
_cell_angle_beta 74.83
_cell_angle_gamma 69.6
_space_group_name_H-M_alt 'P 1'
_space_group_name_Hall 'P 1'
loop_
    _symmetry_equiv_pos_as_xyz
    x,y,z
loop_
    _atom_site_label
    _atom_site_type_symbol
    _atom_site_fract_x
    _atom_site_fract_y
    _atom_site_fract_z
    _atom_site_occupancy
    Tb1      Tb       0.58736    0.59682    0.63162    1.000
    O1       O        0.39640    0.61840    0.40620    1.000
    O2       O        0.47100    0.74380    0.49650    1.000
    O3       O        0.28110    0.25040    0.44070    1.000
    O4       O        0.05060    0.31880    0.45440    1.000
    O5       O        0.87280    0.06160    0.26210    1.000
    O6       O        0.95090    0.84790    0.27430    1.000
    O7       O        0.00350    0.44160    0.66950    1.000
    O8       O        0.77280    0.49420    0.71900    1.000
    O9       O        0.53020    0.48200    0.16360    1.000
    O10      O        0.65820    0.39110    0.29700    1.000
    O11      O        0.17400    0.24740    0.15950    1.000
    O12      O        0.27150    0.23530    0.96890    1.000
    N1       N        0.95870    0.95680    0.28540    1.000
    N2       N        0.16860    0.26250    0.05260    1.000
    C1       C        0.28150    0.85350    0.40620    1.000
    C2       C        0.28130    0.97930    0.43140    1.000
    H1       H        0.35310    0.98500    0.46230    1.000
    C3       C        0.17500    0.09570    0.41070    1.000
    C4       C        0.06740    0.08640    0.36450    1.000
    H2       H        0.99320    0.16270    0.35330    1.000
    C5       C        0.07330    0.96230    0.33570    1.000
    C6       C        0.17690    0.84460    0.35570    1.000
    H3       H        0.17680    0.76210    0.33620    1.000
    C7       C        0.39110    0.72900    0.43780    1.000
    C8       C        0.17060    0.23170    0.43720    1.000
    C9       C        0.89500    0.41730    0.87640    1.000
    C10      C        0.77270    0.44340    0.96850    1.000
    H4       H        0.68580    0.48350    0.94920    1.000
    C11      C        0.77970    0.40970    0.09030    1.000
    C12      C        0.90990    0.34920    0.11870    1.000
    H5       H        0.91610    0.32590    0.19920    1.000
    C13      C        0.02990    0.32460    0.02450    1.000
    C14      C        0.02550    0.35630    0.90430    1.000
    H6       H        0.10790    0.33740    0.84280    1.000
    C15      C        0.88960    0.45370    0.74580    1.000
    C16      C        0.64780    0.43090    0.18910    1.000
    Tb2      Tb       0.41264    0.40318    0.36838    1.000
    O13      O        0.60360    0.38160    0.59380    1.000
    O14      O        0.52900    0.25620    0.50350    1.000
    O15      O        0.71890    0.74960    0.55930    1.000
    O16      O        0.94940    0.68120    0.54560    1.000
    O17      O        0.12720    0.93840    0.73790    1.000
    O18      O        0.04910    0.15210    0.72570    1.000
    O19      O        0.99650    0.55840    0.33050    1.000
    O20      O        0.22720    0.50580    0.28100    1.000
    O21      O        0.46980    0.51800    0.83640    1.000
    O22      O        0.34180    0.60890    0.70300    1.000
    O23      O        0.82600    0.75260    0.84050    1.000
    O24      O        0.72850    0.76470    0.03110    1.000
    N3       N        0.04130    0.04320    0.71460    1.000
    N4       N        0.83140    0.73750    0.94740    1.000
    C17      C        0.71850    0.14650    0.59380    1.000
    C18      C        0.71870    0.02070    0.56860    1.000
    H7       H        0.64690    0.01500    0.53770    1.000
    C19      C        0.82500    0.90430    0.58930    1.000
    C20      C        0.93260    0.91360    0.63550    1.000
    H8       H        0.00680    0.83730    0.64670    1.000
    C21      C        0.92670    0.03770    0.66430    1.000
    C22      C        0.82310    0.15540    0.64430    1.000
    H9       H        0.82320    0.23790    0.66380    1.000
    C23      C        0.60890    0.27100    0.56220    1.000
    C24      C        0.82940    0.76830    0.56280    1.000
    C25      C        0.10500    0.58270    0.12360    1.000
    C26      C        0.22730    0.55660    0.03150    1.000
    H10      H        0.31420    0.51650    0.05080    1.000
    C27      C        0.22030    0.59030    0.90970    1.000
    C28      C        0.09010    0.65080    0.88130    1.000
    H11      H        0.08390    0.67410    0.80080    1.000
    C29      C        0.97010    0.67540    0.97550    1.000
    C30      C        0.97450    0.64370    0.09570    1.000
    H12      H        0.89210    0.66260    0.15720    1.000
    C31      C        0.11040    0.54630    0.25420    1.000
    C32      C        0.35220    0.56910    0.81090    1.000
    Cu1      Cu       0.00000    0.50000    0.50000    1.000
