# CIF file generated by openbabel 3.1.0, see https://openbabel.org
data_I
_chemical_name_common 'image0'
_cell_length_a 8.301
_cell_length_b 11.146
_cell_length_c 13.363
_cell_angle_alpha 86.427
_cell_angle_beta 84.122
_cell_angle_gamma 83.573
_space_group_name_H-M_alt 'P 1'
_space_group_name_Hall 'P 1'
loop_
    _symmetry_equiv_pos_as_xyz
    x,y,z
loop_
    _atom_site_label
    _atom_site_type_symbol
    _atom_site_fract_x
    _atom_site_fract_y
    _atom_site_fract_z
    _atom_site_occupancy
    Zn1      Zn       0.94382    0.31197    0.79517    1.000
    C1       C        0.57230    0.51150    0.97980    1.000
    H1       H        0.59460    0.59160    0.97110    1.000
    C2       C        0.59290    0.29670    0.75610    1.000
    H2       H        0.55730    0.36950    0.78580    1.000
    C3       C        0.49670    0.22400    0.72040    1.000
    H3       H        0.38410    0.23670    0.72060    1.000
    C4       C        0.74920    0.14560    0.69730    1.000
    H4       H        0.84070    0.09330    0.67770    1.000
    C5       C        0.54700    0.02460    0.63450    1.000
    H5       H        0.44380    0.00340    0.66770    1.000
    H6       H        0.62730    0.95520    0.64190    1.000
    C6       C        0.52980    0.05310    0.52420    1.000
    H7       H        0.63420    0.07030    0.49010    1.000
    H8       H        0.45300    0.12450    0.51640    1.000
    C7       C        0.09840    0.28790    0.99050    1.000
    H9       H        0.06900    0.36910    0.00240    1.000
    C8       C        0.17430    0.20710    0.05360    1.000
    H10      H        0.20700    0.22170    0.11580    1.000
    C9       C        0.13020    0.11890    0.92000    1.000
    H11      H        0.12810    0.05960    0.87430    1.000
    C10      C        0.27340    0.98360    0.04670    1.000
    H12      H        0.25530    0.92000    0.00410    1.000
    H13      H        0.22410    0.96490    0.11400    1.000
    C11      C        0.45490    0.98610    0.04990    1.000
    H14      H        0.47200    0.04620    0.09610    1.000
    H15      H        0.50060    0.90810    0.07650    1.000
    C12      C        0.12380    0.53240    0.75300    1.000
    H16      H        0.10670    0.55190    0.82020    1.000
    C13      C        0.20580    0.59450    0.67950    1.000
    H17      H        0.25620    0.66350    0.68660    1.000
    C14      C        0.11910    0.44330    0.61730    1.000
    H18      H        0.09920    0.38870    0.57130    1.000
    C15      C        0.27890    0.57290    0.49310    1.000
    H19      H        0.24010    0.65580    0.47450    1.000
    H20      H        0.24900    0.52140    0.44360    1.000
    C16      C        0.46520    0.56050    0.49300    1.000
    H21      H        0.51210    0.59430    0.42940    1.000
    H22      H        0.49340    0.60730    0.54620    1.000
    C17      C        0.70290    0.41490    0.94710    1.000
    O1       O        0.80680    0.44720    0.87562    1.000
    O2       O        0.70300    0.31150    0.98539    1.000
    N1       N        0.75370    0.24700    0.74206    1.000
    N2       N        0.59690    0.12720    0.68363    1.000
    N3       N        0.07060    0.23250    0.90574    1.000
    N4       N        0.19390    0.09920    0.00802    1.000
    N5       N        0.06930    0.43570    0.71382    1.000
    N6       N        0.20150    0.53860    0.59340    1.000
    Zn2      Zn       0.05618    0.68803    0.20483    1.000
    C18      C        0.42770    0.48850    0.02020    1.000
    H23      H        0.40540    0.40840    0.02890    1.000
    C19      C        0.40710    0.70330    0.24390    1.000
    H24      H        0.44270    0.63050    0.21420    1.000
    C20      C        0.50330    0.77600    0.27960    1.000
    H25      H        0.61590    0.76330    0.27940    1.000
    C21      C        0.25080    0.85440    0.30270    1.000
    H26      H        0.15930    0.90670    0.32230    1.000
    C22      C        0.45300    0.97540    0.36550    1.000
    H27      H        0.55620    0.99660    0.33230    1.000
    H28      H        0.37270    0.04480    0.35810    1.000
    C23      C        0.47020    0.94690    0.47580    1.000
    H29      H        0.36580    0.92970    0.50990    1.000
    H30      H        0.54700    0.87550    0.48360    1.000
    C24      C        0.90160    0.71210    0.00950    1.000
    H31      H        0.93100    0.63090    0.99760    1.000
    C25      C        0.82570    0.79290    0.94640    1.000
    H32      H        0.79300    0.77830    0.88420    1.000
    C26      C        0.86980    0.88110    0.08000    1.000
    H33      H        0.87190    0.94040    0.12570    1.000
    C27      C        0.72660    0.01640    0.95330    1.000
    H34      H        0.74470    0.08000    0.99590    1.000
    H35      H        0.77590    0.03510    0.88600    1.000
    C28      C        0.54510    0.01390    0.95010    1.000
    H36      H        0.52800    0.95380    0.90390    1.000
    H37      H        0.49940    0.09190    0.92350    1.000
    C29      C        0.87620    0.46760    0.24700    1.000
    H38      H        0.89330    0.44810    0.17980    1.000
    C30      C        0.79420    0.40550    0.32050    1.000
    H39      H        0.74380    0.33650    0.31340    1.000
    C31      C        0.88090    0.55670    0.38270    1.000
    H40      H        0.90080    0.61130    0.42870    1.000
    C32      C        0.72110    0.42710    0.50690    1.000
    H41      H        0.75990    0.34420    0.52550    1.000
    H42      H        0.75100    0.47860    0.55640    1.000
    C33      C        0.53480    0.43950    0.50700    1.000
    H43      H        0.48790    0.40570    0.57060    1.000
    H44      H        0.50660    0.39270    0.45380    1.000
    C34      C        0.29710    0.58510    0.05290    1.000
    O3       O        0.19320    0.55280    0.12438    1.000
    O4       O        0.29700    0.68850    0.01461    1.000
    N7       N        0.24630    0.75300    0.25794    1.000
    N8       N        0.40310    0.87280    0.31637    1.000
    N9       N        0.92940    0.76750    0.09426    1.000
    N10      N        0.80610    0.90080    0.99198    1.000
    N11      N        0.93070    0.56430    0.28618    1.000
    N12      N        0.79850    0.46140    0.40660    1.000
