# CIF file generated by openbabel 3.1.0, see https://openbabel.org
data_I
_chemical_name_common 'image0'
_cell_length_a 17.724
_cell_length_b 19.705
_cell_length_c 13.139
_cell_angle_alpha 90
_cell_angle_beta 127.496
_cell_angle_gamma 90
_space_group_name_H-M_alt 'P 1'
_space_group_name_Hall 'P 1'
loop_
    _symmetry_equiv_pos_as_xyz
    x,y,z
loop_
    _atom_site_label
    _atom_site_type_symbol
    _atom_site_fract_x
    _atom_site_fract_y
    _atom_site_fract_z
    _atom_site_occupancy
    O1       O        0.45455    0.42353    0.32120    1.000
    O2       O        0.59419    0.42848    0.51480    1.000
    O3       O        0.40490    0.22206    0.03350    1.000
    O4       O        0.52120    0.14670    0.13560    1.000
    N1       N        0.11609    0.46438    0.08380    1.000
    N2       N        0.23620    0.38032    0.18940    1.000
    H1       H        0.19530    0.34790    0.15310    1.000
    H2       H        0.29590    0.37130    0.24210    1.000
    C1       C        0.53740    0.40273    0.40640    1.000
    C2       C        0.57090    0.34051    0.37780    1.000
    C3       C        0.66410    0.31913    0.46970    1.000
    H3       H        0.70310    0.34380    0.54530    1.000
    C4       C        0.70030    0.26160    0.45110    1.000
    C5       C        0.63840    0.22620    0.33720    1.000
    H4       H        0.66040    0.18740    0.32250    1.000
    C6       C        0.54530    0.24610    0.24500    1.000
    C7       C        0.51130    0.30460    0.26450    1.000
    H5       H        0.44940    0.31930    0.20220    1.000
    C8       C        0.48420    0.20340    0.12620    1.000
    C9       C        0.20620    0.44616    0.16330    1.000
    O5       O        0.95455    0.92353    0.32120    1.000
    O6       O        0.09419    0.92848    0.51480    1.000
    O7       O        0.90490    0.72206    0.03350    1.000
    O8       O        0.02120    0.64670    0.13560    1.000
    N3       N        0.61609    0.96438    0.08380    1.000
    N4       N        0.73620    0.88032    0.18940    1.000
    H6       H        0.69530    0.84790    0.15310    1.000
    H7       H        0.79590    0.87130    0.24210    1.000
    C10      C        0.03740    0.90273    0.40640    1.000
    C11      C        0.07090    0.84051    0.37780    1.000
    C12      C        0.16410    0.81913    0.46970    1.000
    H8       H        0.20310    0.84380    0.54530    1.000
    C13      C        0.20030    0.76160    0.45110    1.000
    C14      C        0.13840    0.72620    0.33720    1.000
    H9       H        0.16040    0.68740    0.32250    1.000
    C15      C        0.04530    0.74610    0.24500    1.000
    C16      C        0.01130    0.80460    0.26450    1.000
    H10      H        0.94940    0.81930    0.20220    1.000
    C17      C        0.98420    0.70340    0.12620    1.000
    C18      C        0.70620    0.94616    0.16330    1.000
    O9       O        0.54545    0.42353    0.67880    1.000
    O10      O        0.40581    0.42848    0.48520    1.000
    O11      O        0.59510    0.22206    0.96650    1.000
    O12      O        0.47880    0.14670    0.86440    1.000
    N5       N        0.88391    0.46438    0.91620    1.000
    N6       N        0.76380    0.38032    0.81060    1.000
    H11      H        0.80470    0.34790    0.84690    1.000
    H12      H        0.70410    0.37130    0.75790    1.000
    C19      C        0.46260    0.40273    0.59360    1.000
    C20      C        0.42910    0.34051    0.62220    1.000
    C21      C        0.33590    0.31913    0.53030    1.000
    H13      H        0.29690    0.34380    0.45470    1.000
    C22      C        0.29970    0.26160    0.54890    1.000
    C23      C        0.36160    0.22620    0.66280    1.000
    H14      H        0.33960    0.18740    0.67750    1.000
    C24      C        0.45470    0.24610    0.75500    1.000
    C25      C        0.48870    0.30460    0.73550    1.000
    H15      H        0.55060    0.31930    0.79780    1.000
    C26      C        0.51580    0.20340    0.87380    1.000
    C27      C        0.79380    0.44616    0.83670    1.000
    O13      O        0.04545    0.92353    0.67880    1.000
    O14      O        0.90581    0.92848    0.48520    1.000
    O15      O        0.09510    0.72206    0.96650    1.000
    O16      O        0.97880    0.64670    0.86440    1.000
    N7       N        0.38391    0.96438    0.91620    1.000
    N8       N        0.26380    0.88032    0.81060    1.000
    H16      H        0.30470    0.84790    0.84690    1.000
    H17      H        0.20410    0.87130    0.75790    1.000
    C28      C        0.96260    0.90273    0.59360    1.000
    C29      C        0.92910    0.84051    0.62220    1.000
    C30      C        0.83590    0.81913    0.53030    1.000
    H18      H        0.79690    0.84380    0.45470    1.000
    C31      C        0.79970    0.76160    0.54890    1.000
    C32      C        0.86160    0.72620    0.66280    1.000
    H19      H        0.83960    0.68740    0.67750    1.000
    C33      C        0.95470    0.74610    0.75500    1.000
    C34      C        0.98870    0.80460    0.73550    1.000
    H20      H        0.05060    0.81930    0.79780    1.000
    C35      C        0.01580    0.70340    0.87380    1.000
    C36      C        0.29380    0.94616    0.83670    1.000
    O17      O        0.54545    0.57647    0.67880    1.000
    O18      O        0.40581    0.57152    0.48520    1.000
    O19      O        0.59510    0.77794    0.96650    1.000
    O20      O        0.47880    0.85330    0.86440    1.000
    N9       N        0.88391    0.53562    0.91620    1.000
    N10      N        0.76380    0.61968    0.81060    1.000
    H21      H        0.80470    0.65210    0.84690    1.000
    H22      H        0.70410    0.62870    0.75790    1.000
    C37      C        0.46260    0.59727    0.59360    1.000
    C38      C        0.42910    0.65949    0.62220    1.000
    C39      C        0.33590    0.68087    0.53030    1.000
    H23      H        0.29690    0.65620    0.45470    1.000
    C40      C        0.29970    0.73840    0.54890    1.000
    C41      C        0.36160    0.77380    0.66280    1.000
    H24      H        0.33960    0.81260    0.67750    1.000
    C42      C        0.45470    0.75390    0.75500    1.000
    C43      C        0.48870    0.69540    0.73550    1.000
    H25      H        0.55060    0.68070    0.79780    1.000
    C44      C        0.51580    0.79660    0.87380    1.000
    C45      C        0.79380    0.55384    0.83670    1.000
    O21      O        0.04545    0.07647    0.67880    1.000
    O22      O        0.90581    0.07152    0.48520    1.000
    O23      O        0.09510    0.27794    0.96650    1.000
    O24      O        0.97880    0.35330    0.86440    1.000
    N11      N        0.38391    0.03562    0.91620    1.000
    N12      N        0.26380    0.11968    0.81060    1.000
    H26      H        0.30470    0.15210    0.84690    1.000
    H27      H        0.20410    0.12870    0.75790    1.000
    C46      C        0.96260    0.09727    0.59360    1.000
    C47      C        0.92910    0.15949    0.62220    1.000
    C48      C        0.83590    0.18087    0.53030    1.000
    H28      H        0.79690    0.15620    0.45470    1.000
    C49      C        0.79970    0.23840    0.54890    1.000
    C50      C        0.86160    0.27380    0.66280    1.000
    H29      H        0.83960    0.31260    0.67750    1.000
    C51      C        0.95470    0.25390    0.75500    1.000
    C52      C        0.98870    0.19540    0.73550    1.000
    H30      H        0.05060    0.18070    0.79780    1.000
    C53      C        0.01580    0.29660    0.87380    1.000
    C54      C        0.29380    0.05384    0.83670    1.000
    O25      O        0.45455    0.57647    0.32120    1.000
    O26      O        0.59419    0.57152    0.51480    1.000
    O27      O        0.40490    0.77794    0.03350    1.000
    O28      O        0.52120    0.85330    0.13560    1.000
    N13      N        0.11609    0.53562    0.08380    1.000
    N14      N        0.23620    0.61968    0.18940    1.000
    H31      H        0.19530    0.65210    0.15310    1.000
    H32      H        0.29590    0.62870    0.24210    1.000
    C55      C        0.53740    0.59727    0.40640    1.000
    C56      C        0.57090    0.65949    0.37780    1.000
    C57      C        0.66410    0.68087    0.46970    1.000
    H33      H        0.70310    0.65620    0.54530    1.000
    C58      C        0.70030    0.73840    0.45110    1.000
    C59      C        0.63840    0.77380    0.33720    1.000
    H34      H        0.66040    0.81260    0.32250    1.000
    C60      C        0.54530    0.75390    0.24500    1.000
    C61      C        0.51130    0.69540    0.26450    1.000
    H35      H        0.44940    0.68070    0.20220    1.000
    C62      C        0.48420    0.79660    0.12620    1.000
    C63      C        0.20620    0.55384    0.16330    1.000
    O29      O        0.95455    0.07647    0.32120    1.000
    O30      O        0.09419    0.07152    0.51480    1.000
    O31      O        0.90490    0.27794    0.03350    1.000
    O32      O        0.02120    0.35330    0.13560    1.000
    N15      N        0.61609    0.03562    0.08380    1.000
    N16      N        0.73620    0.11968    0.18940    1.000
    H36      H        0.69530    0.15210    0.15310    1.000
    H37      H        0.79590    0.12870    0.24210    1.000
    C64      C        0.03740    0.09727    0.40640    1.000
    C65      C        0.07090    0.15949    0.37780    1.000
    C66      C        0.16410    0.18087    0.46970    1.000
    H38      H        0.20310    0.15620    0.54530    1.000
    C67      C        0.20030    0.23840    0.45110    1.000
    C68      C        0.13840    0.27380    0.33720    1.000
    H39      H        0.16040    0.31260    0.32250    1.000
    C69      C        0.04530    0.25390    0.24500    1.000
    C70      C        0.01130    0.19540    0.26450    1.000
    H40      H        0.94940    0.18070    0.20220    1.000
    C71      C        0.98420    0.29660    0.12620    1.000
    C72      C        0.70620    0.05384    0.16330    1.000
    Zn1      Zn       0.40437    0.50000    0.36862    1.000
    N17      N        0.26560    0.50000    0.21730    1.000
    Zn2      Zn       0.90437    0.00000    0.36862    1.000
    N18      N        0.76560    0.00000    0.21730    1.000
    Zn3      Zn       0.59563    0.50000    0.63138    1.000
    N19      N        0.73440    0.50000    0.78270    1.000
    Zn4      Zn       0.09563    0.00000    0.63138    1.000
    N20      N        0.23440    0.00000    0.78270    1.000
    Zn5      Zn       0.00000    0.40852    0.00000    1.000
    Zn6      Zn       0.50000    0.90852    0.00000    1.000
    Zn7      Zn       0.00000    0.59148    0.00000    1.000
    Zn8      Zn       0.50000    0.09148    0.00000    1.000
