# CIF file generated by openbabel 3.1.0, see https://openbabel.org
data_I
_chemical_name_common 'image0'
_cell_length_a 10.2551
_cell_length_b 10.6342
_cell_length_c 6.2296
_cell_angle_alpha 90
_cell_angle_beta 114.568
_cell_angle_gamma 90
_space_group_name_H-M_alt 'P 1'
_space_group_name_Hall 'P 1'
loop_
    _symmetry_equiv_pos_as_xyz
    x,y,z
loop_
    _atom_site_label
    _atom_site_type_symbol
    _atom_site_fract_x
    _atom_site_fract_y
    _atom_site_fract_z
    _atom_site_occupancy
    C1       C        0.31770    0.21100    0.54540    1.000
    H1       H        0.40060    0.26600    0.56960    1.000
    H2       H        0.33290    0.17410    0.69990    1.000
    N1       N        0.31080    0.10910    0.38020    1.000
    H3       H        0.29500    0.14360    0.23600    1.000
    H4       H        0.23440    0.05760    0.35950    1.000
    C2       C        0.81770    0.71100    0.54540    1.000
    H5       H        0.90060    0.76600    0.56960    1.000
    H6       H        0.83290    0.67410    0.69990    1.000
    N2       N        0.81080    0.60910    0.38020    1.000
    H7       H        0.79500    0.64360    0.23600    1.000
    H8       H        0.73440    0.55760    0.35950    1.000
    C3       C        0.68230    0.21100    0.95460    1.000
    H9       H        0.59940    0.26600    0.93040    1.000
    H10      H        0.66710    0.17410    0.80010    1.000
    N3       N        0.68920    0.10910    0.11980    1.000
    H11      H        0.70500    0.14360    0.26400    1.000
    H12      H        0.76560    0.05760    0.14050    1.000
    C4       C        0.18230    0.71100    0.95460    1.000
    H13      H        0.09940    0.76600    0.93040    1.000
    H14      H        0.16710    0.67410    0.80010    1.000
    N4       N        0.18920    0.60910    0.11980    1.000
    H15      H        0.20500    0.64360    0.26400    1.000
    H16      H        0.26560    0.55760    0.14050    1.000
    C5       C        0.68230    0.78900    0.45460    1.000
    H17      H        0.59940    0.73400    0.43040    1.000
    H18      H        0.66710    0.82590    0.30010    1.000
    N5       N        0.68920    0.89090    0.61980    1.000
    H19      H        0.70500    0.85640    0.76400    1.000
    H20      H        0.76560    0.94240    0.64050    1.000
    C6       C        0.18230    0.28900    0.45460    1.000
    H21      H        0.09940    0.23400    0.43040    1.000
    H22      H        0.16710    0.32590    0.30010    1.000
    N6       N        0.18920    0.39090    0.61980    1.000
    H23      H        0.20500    0.35640    0.76400    1.000
    H24      H        0.26560    0.44240    0.64050    1.000
    C7       C        0.31770    0.78900    0.04540    1.000
    H25      H        0.40060    0.73400    0.06960    1.000
    H26      H        0.33290    0.82590    0.19990    1.000
    N7       N        0.31080    0.89090    0.88020    1.000
    H27      H        0.29500    0.85640    0.73600    1.000
    H28      H        0.23440    0.94240    0.85950    1.000
    C8       C        0.81770    0.28900    0.04540    1.000
    H29      H        0.90060    0.23400    0.06960    1.000
    H30      H        0.83290    0.32590    0.19990    1.000
    N8       N        0.81080    0.39090    0.88020    1.000
    H31      H        0.79500    0.35640    0.73600    1.000
    H32      H        0.73440    0.44240    0.85950    1.000
    Ag1      Ag       0.50000    0.00000    0.50000    1.000
    Ag2      Ag       0.00000    0.50000    0.50000    1.000
    Ag3      Ag       0.50000    0.00000    0.00000    1.000
    Ag4      Ag       0.00000    0.50000    0.00000    1.000
