# CIF file generated by openbabel 3.1.0, see https://openbabel.org
data_I
_chemical_name_common 'image0'
_cell_length_a 10.4702
_cell_length_b 12.0131
_cell_length_c 13.1765
_cell_angle_alpha 83.827
_cell_angle_beta 85.92
_cell_angle_gamma 75.686
_space_group_name_H-M_alt 'P 1'
_space_group_name_Hall 'P 1'
loop_
    _symmetry_equiv_pos_as_xyz
    x,y,z
loop_
    _atom_site_label
    _atom_site_type_symbol
    _atom_site_fract_x
    _atom_site_fract_y
    _atom_site_fract_z
    _atom_site_occupancy
    Eu1      Eu       0.39278    0.88220    0.45222    1.000
    O1       O        0.54620    0.95002    0.34285    1.000
    O2       O        0.61060    0.10937    0.36839    1.000
    O3       O        0.15400    0.89927    0.52222    1.000
    O4       O        0.66680    0.92010    0.54321    1.000
    O5       O        0.28990    0.72722    0.50723    1.000
    O6       O        0.64800    0.38910    0.06973    1.000
    O7       O        0.65170    0.33340    0.91270    1.000
    C1       C        0.17470    0.79120    0.51830    1.000
    C2       C        0.56870    0.08060    0.20050    1.000
    C3       C        0.57590    0.04410    0.31340    1.000
    C4       C        0.52050    0.03800    0.03320    1.000
    C5       C        0.60120    0.18190    0.15920    1.000
    H1       H        0.62800    0.23000    0.20190    1.000
    C6       C        0.06050    0.73610    0.52060    1.000
    C7       C        0.55420    0.14120    0.99240    1.000
    H2       H        0.54980    0.16270    0.92100    1.000
    C8       C        0.52880    0.01070    0.13830    1.000
    H3       H        0.50650    0.94200    0.16830    1.000
    C9       C        0.59380    0.21210    0.05430    1.000
    C10      C        0.63370    0.31720    0.00410    1.000
    O8       O        0.60130    0.76483    0.50828    1.000
    C11      C        0.82870    0.74730    0.52220    1.000
    C12      C        0.93130    0.80250    0.52510    1.000
    H4       H        0.91310    0.88320    0.53000    1.000
    C13      C        0.68790    0.81560    0.52500    1.000
    C14      C        0.08610    0.61860    0.51140    1.000
    H5       H        0.17510    0.57500    0.50850    1.000
    C15      C        0.98590    0.56300    0.50640    1.000
    C16      C        0.85600    0.62980    0.51290    1.000
    H6       H        0.78510    0.59380    0.51090    1.000
    Eu2      Eu       0.60722    0.11780    0.54778    1.000
    O9       O        0.45380    0.04998    0.65715    1.000
    O10      O        0.38940    0.89063    0.63161    1.000
    O11      O        0.84600    0.10073    0.47778    1.000
    O12      O        0.33320    0.07990    0.45679    1.000
    O13      O        0.71010    0.27278    0.49277    1.000
    O14      O        0.35200    0.61090    0.93027    1.000
    O15      O        0.34830    0.66660    0.08730    1.000
    C17      C        0.82530    0.20880    0.48170    1.000
    C18      C        0.43130    0.91940    0.79950    1.000
    C19      C        0.42410    0.95590    0.68660    1.000
    C20      C        0.47950    0.96200    0.96680    1.000
    C21      C        0.39880    0.81810    0.84080    1.000
    H7       H        0.37200    0.77000    0.79810    1.000
    C22      C        0.93950    0.26390    0.47940    1.000
    C23      C        0.44580    0.85880    0.00760    1.000
    H8       H        0.45020    0.83730    0.07900    1.000
    C24      C        0.47120    0.98930    0.86170    1.000
    H9       H        0.49350    0.05800    0.83170    1.000
    C25      C        0.40620    0.78790    0.94570    1.000
    C26      C        0.36630    0.68280    0.99590    1.000
    O16      O        0.39870    0.23517    0.49172    1.000
    C27      C        0.17130    0.25270    0.47780    1.000
    C28      C        0.06870    0.19750    0.47490    1.000
    H10      H        0.08690    0.11680    0.47000    1.000
    C29      C        0.31210    0.18440    0.47500    1.000
    C30      C        0.91390    0.38140    0.48860    1.000
    H11      H        0.82490    0.42500    0.49150    1.000
    C31      C        0.01410    0.43700    0.49360    1.000
    C32      C        0.14400    0.37020    0.48710    1.000
    H12      H        0.21490    0.40620    0.48910    1.000
