# CIF file generated by openbabel 3.1.0, see https://openbabel.org
data_I
_chemical_name_common 'IJASIW_clean'
_cell_length_a 10.0691
_cell_length_b 10.9491
_cell_length_c 13.2211
_cell_angle_alpha 99.755
_cell_angle_beta 110.245
_cell_angle_gamma 107.793
_space_group_name_H-M_alt 'P 1'
_space_group_name_Hall 'P 1'
loop_
    _symmetry_equiv_pos_as_xyz
    x,y,z
loop_
    _atom_site_label
    _atom_site_type_symbol
    _atom_site_fract_x
    _atom_site_fract_y
    _atom_site_fract_z
    _atom_site_occupancy
    Er1      Er       0.15495    0.70649    0.19582    1.000
    Er2      Er       0.84505    0.29351    0.80418    1.000
    H1       H        0.72390    0.61950    0.16260    1.000
    H2       H        0.50400    0.36620    0.84630    1.000
    H3       H        0.83750    0.91560    0.31110    1.000
    H4       H        0.22630    0.96890    0.56430    1.000
    H5       H        0.23340    0.40970    0.42540    1.000
    H6       H        0.62620    0.66890    0.44120    1.000
    H7       H        0.96390    0.64190    0.91360    1.000
    H8       H        0.90200    0.73490    0.77090    1.000
    H9       H        0.02170    0.96610    0.80980    1.000
    H10      H        0.20420    0.19030    0.95600    1.000
    H11      H        0.38550    0.31190    0.13650    1.000
    H12      H        0.54290    0.31560    0.33530    1.000
    H13      H        0.60140    0.19470    0.45840    1.000
    H14      H        0.46520    0.96460    0.40030    1.000
    H15      H        0.27610    0.38050    0.83740    1.000
    H16      H        0.49600    0.63380    0.15370    1.000
    H17      H        0.16250    0.08440    0.68890    1.000
    H18      H        0.77370    0.03110    0.43570    1.000
    H19      H        0.76660    0.59030    0.57460    1.000
    H20      H        0.37380    0.33110    0.55880    1.000
    H21      H        0.03610    0.35810    0.08640    1.000
    H22      H        0.09800    0.26510    0.22910    1.000
    H23      H        0.97830    0.03390    0.19020    1.000
    H24      H        0.79580    0.80970    0.04400    1.000
    H25      H        0.61450    0.68810    0.86350    1.000
    H26      H        0.45710    0.68440    0.66470    1.000
    H27      H        0.39860    0.80530    0.54160    1.000
    H28      H        0.53480    0.03540    0.59970    1.000
    C1       C        0.78660    0.48570    0.00990    1.000
    C2       C        0.63720    0.49200    0.00480    1.000
    C3       C        0.63360    0.57140    0.09680    1.000
    C4       C        0.50310    0.42030    0.90830    1.000
    C5       C        0.07710    0.85150    0.34330    1.000
    C6       C        0.03830    0.92940    0.42430    1.000
    C7       C        0.90400    0.94960    0.38780    1.000
    C8       C        0.13430    0.98100    0.53760    1.000
    C9       C        0.32610    0.60100    0.33620    1.000
    C10      C        0.41590    0.54750    0.42090    1.000
    C11      C        0.34040    0.44610    0.45540    1.000
    C12      C        0.57560    0.60130    0.46490    1.000
    C13      C        0.01110    0.73490    0.93100    1.000
    C14      C        0.97360    0.78950    0.84370    1.000
    C15      C        0.04410    0.92600    0.86680    1.000
    C16      C        0.15070    0.00400    0.97780    1.000
    C17      C        0.22770    0.14590    0.00960    1.000
    C18      C        0.33610    0.21900    0.11780    1.000
    C19      C        0.37380    0.15420    0.20170    1.000
    C20      C        0.49000    0.22260    0.31230    1.000
    C21      C        0.52410    0.15120    0.38520    1.000
    C22      C        0.44150    0.01180    0.34900    1.000
    C23      C        0.29580    0.01310    0.17210    1.000
    C24      C        0.17880    0.93810    0.05800    1.000
    C25      C        0.21340    0.51430    0.99010    1.000
    C26      C        0.36280    0.50800    0.99520    1.000
    C27      C        0.36640    0.42860    0.90320    1.000
    C28      C        0.49690    0.57970    0.09170    1.000
    C29      C        0.92290    0.14850    0.65670    1.000
    C30      C        0.96170    0.07060    0.57570    1.000
    C31      C        0.09600    0.05040    0.61220    1.000
    C32      C        0.86570    0.01900    0.46240    1.000
    C33      C        0.67390    0.39900    0.66380    1.000
    C34      C        0.58410    0.45250    0.57910    1.000
    C35      C        0.65960    0.55390    0.54460    1.000
    C36      C        0.42440    0.39870    0.53510    1.000
    C37      C        0.98890    0.26510    0.06900    1.000
    C38      C        0.02640    0.21050    0.15630    1.000
    C39      C        0.95590    0.07400    0.13320    1.000
    C40      C        0.84930    0.99600    0.02220    1.000
    C41      C        0.77230    0.85410    0.99040    1.000
    C42      C        0.66390    0.78100    0.88220    1.000
    C43      C        0.62620    0.84580    0.79830    1.000
    C44      C        0.51000    0.77740    0.68770    1.000
    C45      C        0.47590    0.84880    0.61480    1.000
    C46      C        0.55850    0.98820    0.65100    1.000
    C47      C        0.70420    0.98690    0.82790    1.000
    C48      C        0.82120    0.06190    0.94200    1.000
    N1       N        0.10850    0.80400    0.03710    1.000
    N2       N        0.33170    0.94320    0.24580    1.000
    N3       N        0.89150    0.19600    0.96290    1.000
    N4       N        0.66830    0.05680    0.75420    1.000
    O1       O        0.90880    0.55960    0.09590    1.000
    O2       O        0.78050    0.40700    0.92590    1.000
    O3       O        0.01170    0.83370    0.23820    1.000
    O4       O        0.17620    0.80170    0.38040    1.000
    O5       O        0.18080    0.53760    0.28240    1.000
    O6       O        0.39400    0.70900    0.32060    1.000
    O7       O        0.09120    0.44040    0.90410    1.000
    O8       O        0.21950    0.59300    0.07410    1.000
    O9       O        0.98830    0.16630    0.76180    1.000
    O10      O        0.82380    0.19830    0.61960    1.000
    O11      O        0.81920    0.46240    0.71760    1.000
    O12      O        0.60600    0.29100    0.67940    1.000
