# CIF file generated by openbabel 3.1.0, see https://openbabel.org
data_I
_chemical_name_common 'image0'
_cell_length_a 10.4852
_cell_length_b 11.1525
_cell_length_c 14.2502
_cell_angle_alpha 111.516
_cell_angle_beta 107.291
_cell_angle_gamma 91.523
_space_group_name_H-M_alt 'P 1'
_space_group_name_Hall 'P 1'
loop_
    _symmetry_equiv_pos_as_xyz
    x,y,z
loop_
    _atom_site_label
    _atom_site_type_symbol
    _atom_site_fract_x
    _atom_site_fract_y
    _atom_site_fract_z
    _atom_site_occupancy
    Yb1      Yb       0.68736    0.47761    0.07777    1.000
    Yb2      Yb       0.77627    0.62757    0.38825    1.000
    O1       O        0.68290    0.32130    0.14440    1.000
    O2       O        0.78250    0.40890    0.32140    1.000
    O3       O        0.78010    0.77950    0.31940    1.000
    O4       O        0.69600    0.69960    0.14160    1.000
    O5       O        0.60570    0.29220    0.92170    1.000
    O6       O        0.82470    0.33520    0.99250    1.000
    O7       O        0.86720    0.82080    0.54140    1.000
    O8       O        0.64850    0.78510    0.46610    1.000
    O9       O        0.46230    0.46920    0.07270    1.000
    O10      O        0.58670    0.55440    0.24150    1.000
    O11      O        0.99880    0.63800    0.38770    1.000
    O12      O        0.87830    0.54940    0.21730    1.000
    N1       N        0.84540    0.03570    0.43090    1.000
    H1       H        0.87440    0.10730    0.48670    1.000
    H2       H        0.85000    0.96210    0.43740    1.000
    N2       N        0.84200    0.26780    0.42400    1.000
    H3       H        0.83770    0.34580    0.42660    1.000
    H4       H        0.88030    0.25540    0.48140    1.000
    N3       N        0.49070    0.91760    0.57120    1.000
    H5       H        0.41680    0.93470    0.58430    1.000
    H6       H        0.48870    0.85450    0.51330    1.000
    N4       N        0.98070    0.19200    0.88480    1.000
    H7       H        0.05230    0.16180    0.87460    1.000
    H8       H        0.98620    0.25390    0.94430    1.000
    N5       N        0.19870    0.41110    0.01460    1.000
    H9       H        0.26660    0.40200    0.99180    1.000
    H10      H        0.11820    0.37930    0.97050    1.000
    N6       N        0.26500    0.69800    0.44510    1.000
    H11      H        0.34570    0.72900    0.48930    1.000
    H12      H        0.19690    0.71270    0.46730    1.000
    C1       C        0.72950    0.31320    0.23300    1.000
    C2       C        0.72570    0.17830    0.23390    1.000
    C3       C        0.65950    0.06950    0.14090    1.000
    H13      H        0.61230    0.07950    0.07840    1.000
    C4       C        0.66460    0.94660    0.14240    1.000
    H14      H        0.62260    0.87430    0.07940    1.000
    C5       C        0.73080    0.92740    0.23510    1.000
    C6       C        0.79140    0.03890    0.33100    1.000
    C7       C        0.78780    0.16260    0.32780    1.000
    C8       C        0.73530    0.79270    0.23150    1.000
    C9       C        0.71910    0.26890    0.91580    1.000
    C10      C        0.73180    0.16540    0.81790    1.000
    C11      C        0.61350    0.09380    0.73670    1.000
    H15      H        0.53070    0.11390    0.74430    1.000
    C12      C        0.61570    0.99350    0.64490    1.000
    C13      C        0.74120    0.96520    0.63370    1.000
    C14      C        0.85910    0.04190    0.71380    1.000
    H16      H        0.94230    0.02580    0.70490    1.000
    C15      C        0.85590    0.14010    0.80500    1.000
    C16      C        0.75300    0.85180    0.54200    1.000
    C17      C        0.47190    0.51830    0.17090    1.000
    C18      C        0.34750    0.53280    0.20140    1.000
    C19      C        0.21970    0.47830    0.12480    1.000
    C20      C        0.10530    0.50170    0.15690    1.000
    H17      H        0.01960    0.46870    0.10630    1.000
    C21      C        0.11780    0.57230    0.26140    1.000
    C22      C        0.24490    0.62520    0.33830    1.000
    C23      C        0.35800    0.60430    0.30630    1.000
    H18      H        0.44330    0.63950    0.35700    1.000
    C24      C        0.99170    0.58870    0.29110    1.000
    Yb3      Yb       0.31264    0.52239    0.92223    1.000
    Yb4      Yb       0.22373    0.37243    0.61175    1.000
    O13      O        0.31710    0.67870    0.85560    1.000
    O14      O        0.21750    0.59110    0.67860    1.000
    O15      O        0.21990    0.22050    0.68060    1.000
    O16      O        0.30400    0.30040    0.85840    1.000
    O17      O        0.39430    0.70780    0.07830    1.000
    O18      O        0.17530    0.66480    0.00750    1.000
    O19      O        0.13280    0.17920    0.45860    1.000
    O20      O        0.35150    0.21490    0.53390    1.000
    O21      O        0.53770    0.53080    0.92730    1.000
    O22      O        0.41330    0.44560    0.75850    1.000
    O23      O        0.00120    0.36200    0.61230    1.000
    O24      O        0.12170    0.45060    0.78270    1.000
    N7       N        0.15460    0.96430    0.56910    1.000
    H19      H        0.12560    0.89270    0.51330    1.000
    H20      H        0.15000    0.03790    0.56260    1.000
    N8       N        0.15800    0.73220    0.57600    1.000
    H21      H        0.16230    0.65420    0.57340    1.000
    H22      H        0.11970    0.74460    0.51860    1.000
    N9       N        0.50930    0.08240    0.42880    1.000
    H23      H        0.58320    0.06530    0.41570    1.000
    H24      H        0.51130    0.14550    0.48670    1.000
    N10      N        0.01930    0.80800    0.11520    1.000
    H25      H        0.94770    0.83820    0.12540    1.000
    H26      H        0.01380    0.74610    0.05570    1.000
    N11      N        0.80130    0.58890    0.98540    1.000
    H27      H        0.73340    0.59800    0.00820    1.000
    H28      H        0.88180    0.62070    0.02950    1.000
    N12      N        0.73500    0.30200    0.55490    1.000
    H29      H        0.65430    0.27100    0.51070    1.000
    H30      H        0.80310    0.28730    0.53270    1.000
    C25      C        0.27050    0.68680    0.76700    1.000
    C26      C        0.27430    0.82170    0.76610    1.000
    C27      C        0.34050    0.93050    0.85910    1.000
    H31      H        0.38770    0.92050    0.92160    1.000
    C28      C        0.33540    0.05340    0.85760    1.000
    H32      H        0.37740    0.12570    0.92060    1.000
    C29      C        0.26920    0.07260    0.76490    1.000
    C30      C        0.20860    0.96110    0.66900    1.000
    C31      C        0.21220    0.83740    0.67220    1.000
    C32      C        0.26470    0.20730    0.76850    1.000
    C33      C        0.28090    0.73110    0.08420    1.000
    C34      C        0.26820    0.83460    0.18210    1.000
    C35      C        0.38650    0.90620    0.26330    1.000
    H33      H        0.46930    0.88610    0.25570    1.000
    C36      C        0.38430    0.00650    0.35510    1.000
    C37      C        0.25880    0.03480    0.36630    1.000
    C38      C        0.14090    0.95810    0.28620    1.000
    H34      H        0.05770    0.97420    0.29510    1.000
    C39      C        0.14410    0.85990    0.19500    1.000
    C40      C        0.24700    0.14820    0.45800    1.000
    C41      C        0.52810    0.48170    0.82910    1.000
    C42      C        0.65250    0.46720    0.79860    1.000
    C43      C        0.78030    0.52170    0.87520    1.000
    C44      C        0.89470    0.49830    0.84310    1.000
    H35      H        0.98040    0.53130    0.89370    1.000
    C45      C        0.88220    0.42770    0.73860    1.000
    C46      C        0.75510    0.37480    0.66170    1.000
    C47      C        0.64200    0.39570    0.69370    1.000
    H36      H        0.55670    0.36050    0.64300    1.000
    C48      C        0.00830    0.41130    0.70890    1.000
