# CIF file generated by openbabel 3.1.0, see https://openbabel.org
data_I
_chemical_name_common 'image0'
_cell_length_a 14.2725
_cell_length_b 19.5898
_cell_length_c 20.7591
_cell_angle_alpha 90
_cell_angle_beta 90
_cell_angle_gamma 90
_space_group_name_H-M_alt 'P 1'
_space_group_name_Hall 'P 1'
loop_
    _symmetry_equiv_pos_as_xyz
    x,y,z
loop_
    _atom_site_label
    _atom_site_type_symbol
    _atom_site_fract_x
    _atom_site_fract_y
    _atom_site_fract_z
    _atom_site_occupancy
    O1       O        0.42290    0.42750    0.06800    1.000
    C1       C        0.43160    0.35420    0.18450    1.000
    H1       H        0.37920    0.38130    0.17750    1.000
    C2       C        0.43100    0.31110    0.23870    1.000
    C3       C        0.59160    0.27370    0.20680    1.000
    H2       H        0.64360    0.24630    0.21450    1.000
    C4       C        0.58820    0.31960    0.15610    1.000
    H3       H        0.64040    0.32590    0.12990    1.000
    C5       C        0.35670    0.30850    0.28310    1.000
    H4       H        0.30330    0.33450    0.27540    1.000
    C6       C        0.36080    0.26960    0.33650    1.000
    H5       H        0.31160    0.26980    0.36590    1.000
    C7       C        0.44150    0.22780    0.34760    1.000
    H6       H        0.55070    0.19980    0.31220    1.000
    C8       C        0.44260    0.18430    0.40850    1.000
    O2       O        0.37950    0.18840    0.44890    1.000
    O3       O        0.92290    0.92750    0.56800    1.000
    C9       C        0.93160    0.85420    0.68450    1.000
    H7       H        0.87920    0.88130    0.67750    1.000
    C10      C        0.93100    0.81110    0.73870    1.000
    C11      C        0.09160    0.77370    0.70680    1.000
    H8       H        0.14360    0.74630    0.71450    1.000
    C12      C        0.08820    0.81960    0.65610    1.000
    H9       H        0.14040    0.82590    0.62990    1.000
    C13      C        0.85670    0.80850    0.78310    1.000
    H10      H        0.80330    0.83450    0.77540    1.000
    C14      C        0.86080    0.76960    0.83650    1.000
    H11      H        0.81160    0.76980    0.86590    1.000
    C15      C        0.94150    0.72780    0.84760    1.000
    H12      H        0.05070    0.69980    0.81220    1.000
    C16      C        0.94260    0.68430    0.90850    1.000
    O4       O        0.87950    0.68840    0.94890    1.000
    O5       O        0.57710    0.57250    0.06800    1.000
    C17      C        0.56840    0.64580    0.18450    1.000
    H13      H        0.62080    0.61870    0.17750    1.000
    C18      C        0.56900    0.68890    0.23870    1.000
    C19      C        0.40840    0.72630    0.20680    1.000
    H14      H        0.35640    0.75370    0.21450    1.000
    C20      C        0.41180    0.68040    0.15610    1.000
    H15      H        0.35960    0.67410    0.12990    1.000
    C21      C        0.64330    0.69150    0.28310    1.000
    H16      H        0.69670    0.66550    0.27540    1.000
    C22      C        0.63920    0.73040    0.33650    1.000
    H17      H        0.68840    0.73020    0.36590    1.000
    C23      C        0.55850    0.77220    0.34760    1.000
    H18      H        0.44930    0.80020    0.31220    1.000
    C24      C        0.55740    0.81570    0.40850    1.000
    O6       O        0.62050    0.81160    0.44890    1.000
    O7       O        0.07710    0.07250    0.56800    1.000
    C25      C        0.06840    0.14580    0.68450    1.000
    H19      H        0.12080    0.11870    0.67750    1.000
    C26      C        0.06900    0.18890    0.73870    1.000
    C27      C        0.90840    0.22630    0.70680    1.000
    H20      H        0.85640    0.25370    0.71450    1.000
    C28      C        0.91180    0.18040    0.65610    1.000
    H21      H        0.85960    0.17410    0.62990    1.000
    C29      C        0.14330    0.19150    0.78310    1.000
    H22      H        0.19670    0.16550    0.77540    1.000
    C30      C        0.13920    0.23040    0.83650    1.000
    H23      H        0.18840    0.23020    0.86590    1.000
    C31      C        0.05850    0.27220    0.84760    1.000
    H24      H        0.94930    0.30020    0.81220    1.000
    C32      C        0.05740    0.31570    0.90850    1.000
    O8       O        0.12050    0.31160    0.94890    1.000
    O9       O        0.57710    0.42750    0.93200    1.000
    C33      C        0.56840    0.35420    0.81550    1.000
    H25      H        0.62080    0.38130    0.82250    1.000
    C34      C        0.56900    0.31110    0.76130    1.000
    C35      C        0.40840    0.27370    0.79320    1.000
    H26      H        0.35640    0.24630    0.78550    1.000
    C36      C        0.41180    0.31960    0.84390    1.000
    H27      H        0.35960    0.32590    0.87010    1.000
    C37      C        0.64330    0.30850    0.71690    1.000
    H28      H        0.69670    0.33450    0.72460    1.000
    C38      C        0.63920    0.26960    0.66350    1.000
    H29      H        0.68840    0.26980    0.63410    1.000
    C39      C        0.55850    0.22780    0.65240    1.000
    H30      H        0.44930    0.19980    0.68780    1.000
    C40      C        0.55740    0.18430    0.59150    1.000
    O10      O        0.62050    0.18840    0.55110    1.000
    O11      O        0.07710    0.92750    0.43200    1.000
    C41      C        0.06840    0.85420    0.31550    1.000
    H31      H        0.12080    0.88130    0.32250    1.000
    C42      C        0.06900    0.81110    0.26130    1.000
    C43      C        0.90840    0.77370    0.29320    1.000
    H32      H        0.85640    0.74630    0.28550    1.000
    C44      C        0.91180    0.81960    0.34390    1.000
    H33      H        0.85960    0.82590    0.37010    1.000
    C45      C        0.14330    0.80850    0.21690    1.000
    H34      H        0.19670    0.83450    0.22460    1.000
    C46      C        0.13920    0.76960    0.16350    1.000
    H35      H        0.18840    0.76980    0.13410    1.000
    C47      C        0.05850    0.72780    0.15240    1.000
    H36      H        0.94930    0.69980    0.18780    1.000
    C48      C        0.05740    0.68430    0.09150    1.000
    O12      O        0.12050    0.68840    0.05110    1.000
    O13      O        0.42290    0.57250    0.93200    1.000
    C49      C        0.43160    0.64580    0.81550    1.000
    H37      H        0.37920    0.61870    0.82250    1.000
    C50      C        0.43100    0.68890    0.76130    1.000
    C51      C        0.59160    0.72630    0.79320    1.000
    H38      H        0.64360    0.75370    0.78550    1.000
    C52      C        0.58820    0.68040    0.84390    1.000
    H39      H        0.64040    0.67410    0.87010    1.000
    C53      C        0.35670    0.69150    0.71690    1.000
    H40      H        0.30330    0.66550    0.72460    1.000
    C54      C        0.36080    0.73040    0.66350    1.000
    H41      H        0.31160    0.73020    0.63410    1.000
    C55      C        0.44150    0.77220    0.65240    1.000
    H42      H        0.55070    0.80020    0.68780    1.000
    C56      C        0.44260    0.81570    0.59150    1.000
    O14      O        0.37950    0.81160    0.55110    1.000
    O15      O        0.92290    0.07250    0.43200    1.000
    C57      C        0.93160    0.14580    0.31550    1.000
    H43      H        0.87920    0.11870    0.32250    1.000
    C58      C        0.93100    0.18890    0.26130    1.000
    C59      C        0.09160    0.22630    0.29320    1.000
    H44      H        0.14360    0.25370    0.28550    1.000
    C60      C        0.08820    0.18040    0.34390    1.000
    H45      H        0.14040    0.17410    0.37010    1.000
    C61      C        0.85670    0.19150    0.21690    1.000
    H46      H        0.80330    0.16550    0.22460    1.000
    C62      C        0.86080    0.23040    0.16350    1.000
    H47      H        0.81160    0.23020    0.13410    1.000
    C63      C        0.94150    0.27220    0.15240    1.000
    H48      H        0.05070    0.30020    0.18780    1.000
    C64      C        0.94260    0.31570    0.09150    1.000
    O16      O        0.87950    0.31160    0.05110    1.000
    O17      O        0.57710    0.57250    0.93200    1.000
    C65      C        0.56840    0.64580    0.81550    1.000
    H49      H        0.62080    0.61870    0.82250    1.000
    C66      C        0.56900    0.68890    0.76130    1.000
    C67      C        0.40840    0.72630    0.79320    1.000
    H50      H        0.35640    0.75370    0.78550    1.000
    C68      C        0.41180    0.68040    0.84390    1.000
    H51      H        0.35960    0.67410    0.87010    1.000
    C69      C        0.64330    0.69150    0.71690    1.000
    H52      H        0.69670    0.66550    0.72460    1.000
    C70      C        0.63920    0.73040    0.66350    1.000
    H53      H        0.68840    0.73020    0.63410    1.000
    C71      C        0.55850    0.77220    0.65240    1.000
    H54      H        0.44930    0.80020    0.68780    1.000
    C72      C        0.55740    0.81570    0.59150    1.000
    O18      O        0.62050    0.81160    0.55110    1.000
    O19      O        0.07710    0.07250    0.43200    1.000
    C73      C        0.06840    0.14580    0.31550    1.000
    H55      H        0.12080    0.11870    0.32250    1.000
    C74      C        0.06900    0.18890    0.26130    1.000
    C75      C        0.90840    0.22630    0.29320    1.000
    H56      H        0.85640    0.25370    0.28550    1.000
    C76      C        0.91180    0.18040    0.34390    1.000
    H57      H        0.85960    0.17410    0.37010    1.000
    C77      C        0.14330    0.19150    0.21690    1.000
    H58      H        0.19670    0.16550    0.22460    1.000
    C78      C        0.13920    0.23040    0.16350    1.000
    H59      H        0.18840    0.23020    0.13410    1.000
    C79      C        0.05850    0.27220    0.15240    1.000
    H60      H        0.94930    0.30020    0.18780    1.000
    C80      C        0.05740    0.31570    0.09150    1.000
    O20      O        0.12050    0.31160    0.05110    1.000
    O21      O        0.42290    0.42750    0.93200    1.000
    C81      C        0.43160    0.35420    0.81550    1.000
    H61      H        0.37920    0.38130    0.82250    1.000
    C82      C        0.43100    0.31110    0.76130    1.000
    C83      C        0.59160    0.27370    0.79320    1.000
    H62      H        0.64360    0.24630    0.78550    1.000
    C84      C        0.58820    0.31960    0.84390    1.000
    H63      H        0.64040    0.32590    0.87010    1.000
    C85      C        0.35670    0.30850    0.71690    1.000
    H64      H        0.30330    0.33450    0.72460    1.000
    C86      C        0.36080    0.26960    0.66350    1.000
    H65      H        0.31160    0.26980    0.63410    1.000
    C87      C        0.44150    0.22780    0.65240    1.000
    H66      H        0.55070    0.19980    0.68780    1.000
    C88      C        0.44260    0.18430    0.59150    1.000
    O22      O        0.37950    0.18840    0.55110    1.000
    O23      O        0.92290    0.92750    0.43200    1.000
    C89      C        0.93160    0.85420    0.31550    1.000
    H67      H        0.87920    0.88130    0.32250    1.000
    C90      C        0.93100    0.81110    0.26130    1.000
    C91      C        0.09160    0.77370    0.29320    1.000
    H68      H        0.14360    0.74630    0.28550    1.000
    C92      C        0.08820    0.81960    0.34390    1.000
    H69      H        0.14040    0.82590    0.37010    1.000
    C93      C        0.85670    0.80850    0.21690    1.000
    H70      H        0.80330    0.83450    0.22460    1.000
    C94      C        0.86080    0.76960    0.16350    1.000
    H71      H        0.81160    0.76980    0.13410    1.000
    C95      C        0.94150    0.72780    0.15240    1.000
    H72      H        0.05070    0.69980    0.18780    1.000
    C96      C        0.94260    0.68430    0.09150    1.000
    O24      O        0.87950    0.68840    0.05110    1.000
    O25      O        0.42290    0.57250    0.06800    1.000
    C97      C        0.43160    0.64580    0.18450    1.000
    H73      H        0.37920    0.61870    0.17750    1.000
    C98      C        0.43100    0.68890    0.23870    1.000
    C99      C        0.59160    0.72630    0.20680    1.000
    H74      H        0.64360    0.75370    0.21450    1.000
    C100     C        0.58820    0.68040    0.15610    1.000
    H75      H        0.64040    0.67410    0.12990    1.000
    C101     C        0.35670    0.69150    0.28310    1.000
    H76      H        0.30330    0.66550    0.27540    1.000
    C102     C        0.36080    0.73040    0.33650    1.000
    H77      H        0.31160    0.73020    0.36590    1.000
    C103     C        0.44150    0.77220    0.34760    1.000
    H78      H        0.55070    0.80020    0.31220    1.000
    C104     C        0.44260    0.81570    0.40850    1.000
    O26      O        0.37950    0.81160    0.44890    1.000
    O27      O        0.92290    0.07250    0.56800    1.000
    C105     C        0.93160    0.14580    0.68450    1.000
    H79      H        0.87920    0.11870    0.67750    1.000
    C106     C        0.93100    0.18890    0.73870    1.000
    C107     C        0.09160    0.22630    0.70680    1.000
    H80      H        0.14360    0.25370    0.71450    1.000
    C108     C        0.08820    0.18040    0.65610    1.000
    H81      H        0.14040    0.17410    0.62990    1.000
    C109     C        0.85670    0.19150    0.78310    1.000
    H82      H        0.80330    0.16550    0.77540    1.000
    C110     C        0.86080    0.23040    0.83650    1.000
    H83      H        0.81160    0.23020    0.86590    1.000
    C111     C        0.94150    0.27220    0.84760    1.000
    H84      H        0.05070    0.30020    0.81220    1.000
    C112     C        0.94260    0.31570    0.90850    1.000
    O28      O        0.87950    0.31160    0.94890    1.000
    O29      O        0.57710    0.42750    0.06800    1.000
    C113     C        0.56840    0.35420    0.18450    1.000
    H85      H        0.62080    0.38130    0.17750    1.000
    C114     C        0.56900    0.31110    0.23870    1.000
    C115     C        0.40840    0.27370    0.20680    1.000
    H86      H        0.35640    0.24630    0.21450    1.000
    C116     C        0.41180    0.31960    0.15610    1.000
    H87      H        0.35960    0.32590    0.12990    1.000
    C117     C        0.64330    0.30850    0.28310    1.000
    H88      H        0.69670    0.33450    0.27540    1.000
    C118     C        0.63920    0.26960    0.33650    1.000
    H89      H        0.68840    0.26980    0.36590    1.000
    C119     C        0.55850    0.22780    0.34760    1.000
    H90      H        0.44930    0.19980    0.31220    1.000
    C120     C        0.55740    0.18430    0.40850    1.000
    O30      O        0.62050    0.18840    0.44890    1.000
    O31      O        0.07710    0.92750    0.56800    1.000
    C121     C        0.06840    0.85420    0.68450    1.000
    H91      H        0.12080    0.88130    0.67750    1.000
    C122     C        0.06900    0.81110    0.73870    1.000
    C123     C        0.90840    0.77370    0.70680    1.000
    H92      H        0.85640    0.74630    0.71450    1.000
    C124     C        0.91180    0.81960    0.65610    1.000
    H93      H        0.85960    0.82590    0.62990    1.000
    C125     C        0.14330    0.80850    0.78310    1.000
    H94      H        0.19670    0.83450    0.77540    1.000
    C126     C        0.13920    0.76960    0.83650    1.000
    H95      H        0.18840    0.76980    0.86590    1.000
    C127     C        0.05850    0.72780    0.84760    1.000
    H96      H        0.94930    0.69980    0.81220    1.000
    C128     C        0.05740    0.68430    0.90850    1.000
    O32      O        0.12050    0.68840    0.94890    1.000
    Zn1      Zn       0.39797    0.50000    0.00000    1.000
    O33      O        0.25790    0.50000    0.00000    1.000
    Zn2      Zn       0.89797    0.00000    0.50000    1.000
    O34      O        0.75790    0.00000    0.50000    1.000
    Zn3      Zn       0.60203    0.50000    0.00000    1.000
    O35      O        0.74210    0.50000    0.00000    1.000
    Zn4      Zn       0.10203    0.00000    0.50000    1.000
    O36      O        0.24210    0.00000    0.50000    1.000
    Zn5      Zn       0.50000    0.09980    0.50000    1.000
    Zn6      Zn       0.00000    0.59980    0.00000    1.000
    Zn7      Zn       0.50000    0.90020    0.50000    1.000
    Zn8      Zn       0.00000    0.40020    0.00000    1.000
    C129     C        0.50000    0.40930    0.08850    1.000
    C130     C        0.50000    0.35890    0.14360    1.000
    C131     C        0.50000    0.27100    0.25120    1.000
    C132     C        0.50000    0.22910    0.30700    1.000
    O37      O        0.50000    0.14630    0.41620    1.000
    C133     C        0.00000    0.90930    0.58850    1.000
    C134     C        0.00000    0.85890    0.64360    1.000
    C135     C        0.00000    0.77100    0.75120    1.000
    C136     C        0.00000    0.72910    0.80700    1.000
    O38      O        0.00000    0.64630    0.91620    1.000
    C137     C        0.50000    0.59070    0.08850    1.000
    C138     C        0.50000    0.64110    0.14360    1.000
    C139     C        0.50000    0.72900    0.25120    1.000
    C140     C        0.50000    0.77090    0.30700    1.000
    O39      O        0.50000    0.85370    0.41620    1.000
    C141     C        0.00000    0.09070    0.58850    1.000
    C142     C        0.00000    0.14110    0.64360    1.000
    C143     C        0.00000    0.22900    0.75120    1.000
    C144     C        0.00000    0.27090    0.80700    1.000
    O40      O        0.00000    0.35370    0.91620    1.000
    C145     C        0.50000    0.40930    0.91150    1.000
    C146     C        0.50000    0.35890    0.85640    1.000
    C147     C        0.50000    0.27100    0.74880    1.000
    C148     C        0.50000    0.22910    0.69300    1.000
    O41      O        0.50000    0.14630    0.58380    1.000
    C149     C        0.00000    0.90930    0.41150    1.000
    C150     C        0.00000    0.85890    0.35640    1.000
    C151     C        0.00000    0.77100    0.24880    1.000
    C152     C        0.00000    0.72910    0.19300    1.000
    O42      O        0.00000    0.64630    0.08380    1.000
    C153     C        0.50000    0.59070    0.91150    1.000
    C154     C        0.50000    0.64110    0.85640    1.000
    C155     C        0.50000    0.72900    0.74880    1.000
    C156     C        0.50000    0.77090    0.69300    1.000
    O43      O        0.50000    0.85370    0.58380    1.000
    C157     C        0.00000    0.09070    0.41150    1.000
    C158     C        0.00000    0.14110    0.35640    1.000
    C159     C        0.00000    0.22900    0.24880    1.000
    C160     C        0.00000    0.27090    0.19300    1.000
    O44      O        0.00000    0.35370    0.08380    1.000
    C161     C        0.19990    0.44710    0.00000    1.000
    H97      H        0.22020    0.40190    0.00000    1.000
    N1       N        0.11090    0.46450    0.00000    1.000
    C162     C        0.69990    0.94710    0.50000    1.000
    H98      H        0.72020    0.90190    0.50000    1.000
    N2       N        0.61090    0.96450    0.50000    1.000
    C163     C        0.80010    0.55290    0.00000    1.000
    H99      H        0.77980    0.59810    0.00000    1.000
    N3       N        0.88910    0.53550    0.00000    1.000
    C164     C        0.30010    0.05290    0.50000    1.000
    H100     H        0.27980    0.09810    0.50000    1.000
    N4       N        0.38910    0.03550    0.50000    1.000
    C165     C        0.80010    0.44710    0.00000    1.000
    H101     H        0.77980    0.40190    0.00000    1.000
    N5       N        0.88910    0.46450    0.00000    1.000
    C166     C        0.30010    0.94710    0.50000    1.000
    H102     H        0.27980    0.90190    0.50000    1.000
    N6       N        0.38910    0.96450    0.50000    1.000
    C167     C        0.19990    0.55290    0.00000    1.000
    H103     H        0.22020    0.59810    0.00000    1.000
    N7       N        0.11090    0.53550    0.00000    1.000
    C168     C        0.69990    0.05290    0.50000    1.000
    H104     H        0.72020    0.09810    0.50000    1.000
    N8       N        0.61090    0.03550    0.50000    1.000
