# CIF file generated by openbabel 3.1.0, see https://openbabel.org
data_I
_chemical_name_common 'image0'
_cell_length_a 29.162
_cell_length_b 21.924
_cell_length_c 14.955
_cell_angle_alpha 90
_cell_angle_beta 103.38
_cell_angle_gamma 90
_space_group_name_H-M_alt 'P 1'
_space_group_name_Hall 'P 1'
loop_
    _symmetry_equiv_pos_as_xyz
    x,y,z
loop_
    _atom_site_label
    _atom_site_type_symbol
    _atom_site_fract_x
    _atom_site_fract_y
    _atom_site_fract_z
    _atom_site_occupancy
    Dy1      Dy       0.23540    0.75204    0.32745    1.000
    Dy2      Dy       0.73402    0.26331    0.90554    1.000
    O1       O        0.80220    0.26670    0.84170    1.000
    O2       O        0.84200    0.22940    0.75040    1.000
    O3       O        0.20180    0.82680    0.88410    1.000
    O4       O        0.23420    0.82370    0.03140    1.000
    O5       O        0.21040    0.80400    0.45020    1.000
    O6       O        0.24220    0.86610    0.55800    1.000
    O7       O        0.30110    0.76660    0.44920    1.000
    O8       O        0.33890    0.72160    0.57680    1.000
    O9       O        0.72390    0.32390    0.71320    1.000
    O10      O        0.67820    0.32660    0.81410    1.000
    O11      O        0.71520    0.30030    0.27360    1.000
    O12      O        0.75580    0.35740    0.20020    1.000
    N1       N        0.98390    0.16550    0.13540    1.000
    N2       N        0.07400    0.02870    0.01480    1.000
    N3       N        0.09360    0.05070    0.33380    1.000
    N4       N        0.03970    0.10890    0.23340    1.000
    N5       N        0.08520    0.03540    0.17530    1.000
    N6       N        0.02810    0.09430    0.07060    1.000
    N7       N        0.49220    0.67260    0.34320    1.000
    N8       N        0.54850    0.61480    0.30160    1.000
    N9       N        0.60680    0.55600    0.26400    1.000
    N10      N        0.59000    0.54090    0.41010    1.000
    N11      N        0.53130    0.59980    0.44900    1.000
    N12      N        0.56970    0.52910    0.55010    1.000
    C1       C        0.83910    0.24320    0.83000    1.000
    C2       C        0.87910    0.22480    0.91060    1.000
    C3       C        0.91420    0.18430    0.89530    1.000
    H1       H        0.91290    0.17020    0.83620    1.000
    C4       C        0.94890    0.16580    0.96430    1.000
    H2       H        0.97230    0.14040    0.95220    1.000
    C5       C        0.95100    0.18400    0.05400    1.000
    C6       C        0.91790    0.22580    0.07090    1.000
    H3       H        0.92040    0.24120    0.12980    1.000
    C7       C        0.88060    0.24470    0.99790    1.000
    H4       H        0.85720    0.27050    0.00910    1.000
    C8       C        0.01780    0.12050    0.14380    1.000
    C9       C        0.06980    0.06300    0.24400    1.000
    C10      C        0.06200    0.05210    0.09360    1.000
    C11      C        0.10670    0.98460    0.01110    1.000
    C12      C        0.14400    0.96300    0.08140    1.000
    H5       H        0.14850    0.97930    0.14010    1.000
    C13      C        0.17320    0.91950    0.06510    1.000
    H6       H        0.19570    0.90440    0.11460    1.000
    C14      C        0.17180    0.89530    0.97740    1.000
    C15      C        0.13800    0.91750    0.90840    1.000
    H7       H        0.13600    0.90250    0.84950    1.000
    C16      C        0.10630    0.96120    0.92060    1.000
    H8       H        0.08430    0.97590    0.86990    1.000
    C17      C        0.20560    0.84770    0.96710    1.000
    C18      C        0.12510    0.00540    0.35970    1.000
    C19      C        0.15760    0.01110    0.44560    1.000
    H9       H        0.15860    0.04710    0.47880    1.000
    C20      C        0.18740    0.96490    0.48030    1.000
    H10      H        0.21110    0.97170    0.53280    1.000
    C21      C        0.18330    0.90630    0.43830    1.000
    C22      C        0.15070    0.89860    0.35680    1.000
    H11      H        0.14880    0.86170    0.32540    1.000
    C23      C        0.12050    0.94640    0.32140    1.000
    H12      H        0.09620    0.93910    0.27010    1.000
    C24      C        0.21370    0.85570    0.48500    1.000
    C25      C        0.33690    0.73900    0.49850    1.000
    C26      C        0.38070    0.72650    0.46130    1.000
    C27      C        0.41360    0.68880    0.50980    1.000
    H13      H        0.41140    0.67590    0.56780    1.000
    C28      C        0.45270    0.66800    0.47230    1.000
    H14      H        0.47450    0.63990    0.50340    1.000
    C29      C        0.45590    0.69200    0.38820    1.000
    C30      C        0.42170    0.72970    0.34090    1.000
    H15      H        0.42380    0.74260    0.28270    1.000
    C31      C        0.38410    0.74980    0.37480    1.000
    H16      H        0.36220    0.77740    0.34240    1.000
    C32      C        0.52330    0.62690    0.36720    1.000
    C33      C        0.56250    0.55670    0.46760    1.000
    C34      C        0.58090    0.57000    0.33020    1.000
    C35      C        0.63560    0.50670    0.26690    1.000
    C36      C        0.63010    0.45010    0.30440    1.000
    H17      H        0.60520    0.44520    0.33290    1.000
    C37      C        0.65880    0.40060    0.30240    1.000
    H18      H        0.65430    0.36430    0.33160    1.000
    C38      C        0.69470    0.40600    0.25550    1.000
    C39      C        0.70010    0.46240    0.21400    1.000
    H19      H        0.72320    0.46650    0.18090    1.000
    C40      C        0.67220    0.51070    0.22110    1.000
    H20      H        0.67760    0.54760    0.19470    1.000
    C41      C        0.60070    0.48680    0.59370    1.000
    C42      C        0.63930    0.46460    0.56460    1.000
    H21      H        0.64650    0.48040    0.51180    1.000
    C43      C        0.66700    0.41960    0.61310    1.000
    H22      H        0.69190    0.40420    0.59090    1.000
    C44      C        0.65890    0.39680    0.69370    1.000
    C45      C        0.62150    0.41920    0.72240    1.000
    H23      H        0.61540    0.40410    0.77650    1.000
    C46      C        0.59290    0.46240    0.67600    1.000
    H24      H        0.56760    0.47630    0.69860    1.000
    C47      C        0.68720    0.34350    0.74170    1.000
    C48      C        0.72200    0.35120    0.24110    1.000
    Dy3      Dy       0.76460    0.25204    0.17255    1.000
    Dy4      Dy       0.26598    0.76331    0.59446    1.000
    O13      O        0.19780    0.76670    0.65830    1.000
    O14      O        0.15800    0.72940    0.74960    1.000
    O15      O        0.79820    0.32680    0.61590    1.000
    O16      O        0.76580    0.32370    0.46860    1.000
    O17      O        0.78960    0.30400    0.04980    1.000
    O18      O        0.75780    0.36610    0.94200    1.000
    O19      O        0.69890    0.26660    0.05080    1.000
    O20      O        0.66110    0.22160    0.92320    1.000
    O21      O        0.27610    0.82390    0.78680    1.000
    O22      O        0.32180    0.82660    0.68590    1.000
    O23      O        0.28480    0.80030    0.22640    1.000
    O24      O        0.24420    0.85740    0.29980    1.000
    N13      N        0.01610    0.66550    0.36460    1.000
    N14      N        0.92600    0.52870    0.48520    1.000
    N15      N        0.90640    0.55070    0.16620    1.000
    N16      N        0.96030    0.60890    0.26660    1.000
    N17      N        0.91480    0.53540    0.32470    1.000
    N18      N        0.97190    0.59430    0.42940    1.000
    N19      N        0.50780    0.17260    0.15680    1.000
    N20      N        0.45150    0.11480    0.19840    1.000
    N21      N        0.39320    0.05600    0.23600    1.000
    N22      N        0.41000    0.04090    0.08990    1.000
    N23      N        0.46870    0.09980    0.05100    1.000
    N24      N        0.43030    0.02910    0.94990    1.000
    C49      C        0.16090    0.74320    0.67000    1.000
    C50      C        0.12090    0.72480    0.58940    1.000
    C51      C        0.08580    0.68430    0.60470    1.000
    H25      H        0.08710    0.67020    0.66380    1.000
    C52      C        0.05110    0.66580    0.53570    1.000
    H26      H        0.02770    0.64040    0.54780    1.000
    C53      C        0.04900    0.68400    0.44600    1.000
    C54      C        0.08210    0.72580    0.42910    1.000
    H27      H        0.07960    0.74120    0.37020    1.000
    C55      C        0.11940    0.74470    0.50210    1.000
    H28      H        0.14280    0.77050    0.49090    1.000
    C56      C        0.98220    0.62050    0.35620    1.000
    C57      C        0.93020    0.56300    0.25600    1.000
    C58      C        0.93800    0.55210    0.40640    1.000
    C59      C        0.89330    0.48460    0.48890    1.000
    C60      C        0.85600    0.46300    0.41860    1.000
    H29      H        0.85150    0.47930    0.35990    1.000
    C61      C        0.82680    0.41950    0.43490    1.000
    H30      H        0.80430    0.40440    0.38540    1.000
    C62      C        0.82820    0.39530    0.52260    1.000
    C63      C        0.86200    0.41750    0.59160    1.000
    H31      H        0.86400    0.40250    0.65050    1.000
    C64      C        0.89370    0.46120    0.57940    1.000
    H32      H        0.91570    0.47590    0.63010    1.000
    C65      C        0.79440    0.34770    0.53290    1.000
    C66      C        0.87490    0.50540    0.14030    1.000
    C67      C        0.84240    0.51110    0.05440    1.000
    H33      H        0.84140    0.54710    0.02120    1.000
    C68      C        0.81260    0.46490    0.01970    1.000
    H34      H        0.78890    0.47170    0.96720    1.000
    C69      C        0.81670    0.40630    0.06170    1.000
    C70      C        0.84930    0.39860    0.14320    1.000
    H35      H        0.85120    0.36170    0.17460    1.000
    C71      C        0.87950    0.44640    0.17860    1.000
    H36      H        0.90380    0.43910    0.22990    1.000
    C72      C        0.78630    0.35570    0.01500    1.000
    C73      C        0.66310    0.23900    0.00150    1.000
    C74      C        0.61930    0.22650    0.03870    1.000
    C75      C        0.58640    0.18880    0.99020    1.000
    H37      H        0.58860    0.17590    0.93220    1.000
    C76      C        0.54730    0.16800    0.02770    1.000
    H38      H        0.52550    0.13990    0.99660    1.000
    C77      C        0.54410    0.19200    0.11180    1.000
    C78      C        0.57830    0.22970    0.15910    1.000
    H39      H        0.57620    0.24260    0.21730    1.000
    C79      C        0.61590    0.24980    0.12520    1.000
    H40      H        0.63780    0.27740    0.15760    1.000
    C80      C        0.47670    0.12690    0.13280    1.000
    C81      C        0.43750    0.05670    0.03240    1.000
    C82      C        0.41910    0.07000    0.16980    1.000
    C83      C        0.36440    0.00670    0.23310    1.000
    C84      C        0.36990    0.95010    0.19560    1.000
    H41      H        0.39480    0.94520    0.16710    1.000
    C85      C        0.34120    0.90060    0.19760    1.000
    H42      H        0.34570    0.86430    0.16840    1.000
    C86      C        0.30530    0.90600    0.24450    1.000
    C87      C        0.29990    0.96240    0.28600    1.000
    H43      H        0.27680    0.96650    0.31910    1.000
    C88      C        0.32780    0.01070    0.27890    1.000
    H44      H        0.32240    0.04760    0.30530    1.000
    C89      C        0.39930    0.98680    0.90630    1.000
    C90      C        0.36070    0.96460    0.93540    1.000
    H45      H        0.35350    0.98040    0.98820    1.000
    C91      C        0.33300    0.91960    0.88690    1.000
    H46      H        0.30810    0.90420    0.90910    1.000
    C92      C        0.34110    0.89680    0.80630    1.000
    C93      C        0.37850    0.91920    0.77760    1.000
    H47      H        0.38460    0.90410    0.72350    1.000
    C94      C        0.40710    0.96240    0.82400    1.000
    H48      H        0.43240    0.97630    0.80140    1.000
    C95      C        0.31280    0.84350    0.75830    1.000
    C96      C        0.27800    0.85120    0.25890    1.000
    Dy5      Dy       0.76460    0.24796    0.67255    1.000
    Dy6      Dy       0.26598    0.73669    0.09446    1.000
    O25      O        0.19780    0.73330    0.15830    1.000
    O26      O        0.15800    0.77060    0.24960    1.000
    O27      O        0.79820    0.17320    0.11590    1.000
    O28      O        0.76580    0.17630    0.96860    1.000
    O29      O        0.78960    0.19600    0.54980    1.000
    O30      O        0.75780    0.13390    0.44200    1.000
    O31      O        0.69890    0.23340    0.55080    1.000
    O32      O        0.66110    0.27840    0.42320    1.000
    O33      O        0.27610    0.67610    0.28680    1.000
    O34      O        0.32180    0.67340    0.18590    1.000
    O35      O        0.28480    0.69970    0.72640    1.000
    O36      O        0.24420    0.64260    0.79980    1.000
    N25      N        0.01610    0.83450    0.86460    1.000
    N26      N        0.92600    0.97130    0.98520    1.000
    N27      N        0.90640    0.94930    0.66620    1.000
    N28      N        0.96030    0.89110    0.76660    1.000
    N29      N        0.91480    0.96460    0.82470    1.000
    N30      N        0.97190    0.90570    0.92940    1.000
    N31      N        0.50780    0.32740    0.65680    1.000
    N32      N        0.45150    0.38520    0.69840    1.000
    N33      N        0.39320    0.44400    0.73600    1.000
    N34      N        0.41000    0.45910    0.58990    1.000
    N35      N        0.46870    0.40020    0.55100    1.000
    N36      N        0.43030    0.47090    0.44990    1.000
    C97      C        0.16090    0.75680    0.17000    1.000
    C98      C        0.12090    0.77520    0.08940    1.000
    C99      C        0.08580    0.81570    0.10470    1.000
    H49      H        0.08710    0.82980    0.16380    1.000
    C100     C        0.05110    0.83420    0.03570    1.000
    H50      H        0.02770    0.85960    0.04780    1.000
    C101     C        0.04900    0.81600    0.94600    1.000
    C102     C        0.08210    0.77420    0.92910    1.000
    H51      H        0.07960    0.75880    0.87020    1.000
    C103     C        0.11940    0.75530    0.00210    1.000
    H52      H        0.14280    0.72950    0.99090    1.000
    C104     C        0.98220    0.87950    0.85620    1.000
    C105     C        0.93020    0.93700    0.75600    1.000
    C106     C        0.93800    0.94790    0.90640    1.000
    C107     C        0.89330    0.01540    0.98890    1.000
    C108     C        0.85600    0.03700    0.91860    1.000
    H53      H        0.85150    0.02070    0.85990    1.000
    C109     C        0.82680    0.08050    0.93490    1.000
    H54      H        0.80430    0.09560    0.88540    1.000
    C110     C        0.82820    0.10470    0.02260    1.000
    C111     C        0.86200    0.08250    0.09160    1.000
    H55      H        0.86400    0.09750    0.15050    1.000
    C112     C        0.89370    0.03880    0.07940    1.000
    H56      H        0.91570    0.02410    0.13010    1.000
    C113     C        0.79440    0.15230    0.03290    1.000
    C114     C        0.87490    0.99460    0.64030    1.000
    C115     C        0.84240    0.98890    0.55440    1.000
    H57      H        0.84140    0.95290    0.52120    1.000
    C116     C        0.81260    0.03510    0.51970    1.000
    H58      H        0.78890    0.02830    0.46720    1.000
    C117     C        0.81670    0.09370    0.56170    1.000
    C118     C        0.84930    0.10140    0.64320    1.000
    H59      H        0.85120    0.13830    0.67460    1.000
    C119     C        0.87950    0.05360    0.67860    1.000
    H60      H        0.90380    0.06090    0.72990    1.000
    C120     C        0.78630    0.14430    0.51500    1.000
    C121     C        0.66310    0.26100    0.50150    1.000
    C122     C        0.61930    0.27350    0.53870    1.000
    C123     C        0.58640    0.31120    0.49020    1.000
    H61      H        0.58860    0.32410    0.43220    1.000
    C124     C        0.54730    0.33200    0.52770    1.000
    H62      H        0.52550    0.36010    0.49660    1.000
    C125     C        0.54410    0.30800    0.61180    1.000
    C126     C        0.57830    0.27030    0.65910    1.000
    H63      H        0.57620    0.25740    0.71730    1.000
    C127     C        0.61590    0.25020    0.62520    1.000
    H64      H        0.63780    0.22260    0.65760    1.000
    C128     C        0.47670    0.37310    0.63280    1.000
    C129     C        0.43750    0.44330    0.53240    1.000
    C130     C        0.41910    0.43000    0.66980    1.000
    C131     C        0.36440    0.49330    0.73310    1.000
    C132     C        0.36990    0.54990    0.69560    1.000
    H65      H        0.39480    0.55480    0.66710    1.000
    C133     C        0.34120    0.59940    0.69760    1.000
    H66      H        0.34570    0.63570    0.66840    1.000
    C134     C        0.30530    0.59400    0.74450    1.000
    C135     C        0.29990    0.53760    0.78600    1.000
    H67      H        0.27680    0.53350    0.81910    1.000
    C136     C        0.32780    0.48930    0.77890    1.000
    H68      H        0.32240    0.45240    0.80530    1.000
    C137     C        0.39930    0.51320    0.40630    1.000
    C138     C        0.36070    0.53540    0.43540    1.000
    H69      H        0.35350    0.51960    0.48820    1.000
    C139     C        0.33300    0.58040    0.38690    1.000
    H70      H        0.30810    0.59580    0.40910    1.000
    C140     C        0.34110    0.60320    0.30630    1.000
    C141     C        0.37850    0.58080    0.27760    1.000
    H71      H        0.38460    0.59590    0.22350    1.000
    C142     C        0.40710    0.53760    0.32400    1.000
    H72      H        0.43240    0.52370    0.30140    1.000
    C143     C        0.31280    0.65650    0.25830    1.000
    C144     C        0.27800    0.64880    0.75890    1.000
    Dy7      Dy       0.23540    0.74796    0.82745    1.000
    Dy8      Dy       0.73402    0.23669    0.40554    1.000
    O37      O        0.80220    0.23330    0.34170    1.000
    O38      O        0.84200    0.27060    0.25040    1.000
    O39      O        0.20180    0.67320    0.38410    1.000
    O40      O        0.23420    0.67630    0.53140    1.000
    O41      O        0.21040    0.69600    0.95020    1.000
    O42      O        0.24220    0.63390    0.05800    1.000
    O43      O        0.30110    0.73340    0.94920    1.000
    O44      O        0.33890    0.77840    0.07680    1.000
    O45      O        0.72390    0.17610    0.21320    1.000
    O46      O        0.67820    0.17340    0.31410    1.000
    O47      O        0.71520    0.19970    0.77360    1.000
    O48      O        0.75580    0.14260    0.70020    1.000
    N37      N        0.98390    0.33450    0.63540    1.000
    N38      N        0.07400    0.47130    0.51480    1.000
    N39      N        0.09360    0.44930    0.83380    1.000
    N40      N        0.03970    0.39110    0.73340    1.000
    N41      N        0.08520    0.46460    0.67530    1.000
    N42      N        0.02810    0.40570    0.57060    1.000
    N43      N        0.49220    0.82740    0.84320    1.000
    N44      N        0.54850    0.88520    0.80160    1.000
    N45      N        0.60680    0.94400    0.76400    1.000
    N46      N        0.59000    0.95910    0.91010    1.000
    N47      N        0.53130    0.90020    0.94900    1.000
    N48      N        0.56970    0.97090    0.05010    1.000
    C145     C        0.83910    0.25680    0.33000    1.000
    C146     C        0.87910    0.27520    0.41060    1.000
    C147     C        0.91420    0.31570    0.39530    1.000
    H73      H        0.91290    0.32980    0.33620    1.000
    C148     C        0.94890    0.33420    0.46430    1.000
    H74      H        0.97230    0.35960    0.45220    1.000
    C149     C        0.95100    0.31600    0.55400    1.000
    C150     C        0.91790    0.27420    0.57090    1.000
    H75      H        0.92040    0.25880    0.62980    1.000
    C151     C        0.88060    0.25530    0.49790    1.000
    H76      H        0.85720    0.22950    0.50910    1.000
    C152     C        0.01780    0.37950    0.64380    1.000
    C153     C        0.06980    0.43700    0.74400    1.000
    C154     C        0.06200    0.44790    0.59360    1.000
    C155     C        0.10670    0.51540    0.51110    1.000
    C156     C        0.14400    0.53700    0.58140    1.000
    H77      H        0.14850    0.52070    0.64010    1.000
    C157     C        0.17320    0.58050    0.56510    1.000
    H78      H        0.19570    0.59560    0.61460    1.000
    C158     C        0.17180    0.60470    0.47740    1.000
    C159     C        0.13800    0.58250    0.40840    1.000
    H79      H        0.13600    0.59750    0.34950    1.000
    C160     C        0.10630    0.53880    0.42060    1.000
    H80      H        0.08430    0.52410    0.36990    1.000
    C161     C        0.20560    0.65230    0.46710    1.000
    C162     C        0.12510    0.49460    0.85970    1.000
    C163     C        0.15760    0.48890    0.94560    1.000
    H81      H        0.15860    0.45290    0.97880    1.000
    C164     C        0.18740    0.53510    0.98030    1.000
    H82      H        0.21110    0.52830    0.03280    1.000
    C165     C        0.18330    0.59370    0.93830    1.000
    C166     C        0.15070    0.60140    0.85680    1.000
    H83      H        0.14880    0.63830    0.82540    1.000
    C167     C        0.12050    0.55360    0.82140    1.000
    H84      H        0.09620    0.56090    0.77010    1.000
    C168     C        0.21370    0.64430    0.98500    1.000
    C169     C        0.33690    0.76100    0.99850    1.000
    C170     C        0.38070    0.77350    0.96130    1.000
    C171     C        0.41360    0.81120    0.00980    1.000
    H85      H        0.41140    0.82410    0.06780    1.000
    C172     C        0.45270    0.83200    0.97230    1.000
    H86      H        0.47450    0.86010    0.00340    1.000
    C173     C        0.45590    0.80800    0.88820    1.000
    C174     C        0.42170    0.77030    0.84090    1.000
    H87      H        0.42380    0.75740    0.78270    1.000
    C175     C        0.38410    0.75020    0.87480    1.000
    H88      H        0.36220    0.72260    0.84240    1.000
    C176     C        0.52330    0.87310    0.86720    1.000
    C177     C        0.56250    0.94330    0.96760    1.000
    C178     C        0.58090    0.93000    0.83020    1.000
    C179     C        0.63560    0.99330    0.76690    1.000
    C180     C        0.63010    0.04990    0.80440    1.000
    H89      H        0.60520    0.05480    0.83290    1.000
    C181     C        0.65880    0.09940    0.80240    1.000
    H90      H        0.65430    0.13570    0.83160    1.000
    C182     C        0.69470    0.09400    0.75550    1.000
    C183     C        0.70010    0.03760    0.71400    1.000
    H91      H        0.72320    0.03350    0.68090    1.000
    C184     C        0.67220    0.98930    0.72110    1.000
    H92      H        0.67760    0.95240    0.69470    1.000
    C185     C        0.60070    0.01320    0.09370    1.000
    C186     C        0.63930    0.03540    0.06460    1.000
    H93      H        0.64650    0.01960    0.01180    1.000
    C187     C        0.66700    0.08040    0.11310    1.000
    H94      H        0.69190    0.09580    0.09090    1.000
    C188     C        0.65890    0.10320    0.19370    1.000
    C189     C        0.62150    0.08080    0.22240    1.000
    H95      H        0.61540    0.09590    0.27650    1.000
    C190     C        0.59290    0.03760    0.17600    1.000
    H96      H        0.56760    0.02370    0.19860    1.000
    C191     C        0.68720    0.15650    0.24170    1.000
    C192     C        0.72200    0.14880    0.74110    1.000
