# CIF file generated by openbabel 3.1.0, see https://openbabel.org
data_I
_chemical_name_common 'image0'
_cell_length_a 10.9188
_cell_length_b 10.9634
_cell_length_c 11.0564
_cell_angle_alpha 83.336
_cell_angle_beta 87.083
_cell_angle_gamma 70.191
_space_group_name_H-M_alt 'P 1'
_space_group_name_Hall 'P 1'
loop_
    _symmetry_equiv_pos_as_xyz
    x,y,z
loop_
    _atom_site_label
    _atom_site_type_symbol
    _atom_site_fract_x
    _atom_site_fract_y
    _atom_site_fract_z
    _atom_site_occupancy
    Co1      Co       0.09333    0.89525    0.25072    1.000
    Co2      Co       0.85068    0.01668    0.48226    1.000
    Co3      Co       0.97107    0.86351    0.00171    1.000
    N1       N        0.80030    0.93740    0.33490    1.000
    N2       N        0.88190    0.93200    0.23900    1.000
    N3       N        0.83450    0.90240    0.14090    1.000
    N4       N        0.07620    0.17760    0.16360    1.000
    N5       N        0.09360    0.08640    0.25710    1.000
    N6       N        0.11370    0.12460    0.36110    1.000
    C1       C        0.69580    0.91030    0.29660    1.000
    C2       C        0.71770    0.88910    0.17360    1.000
    C3       C        0.62560    0.86240    0.10560    1.000
    H1       H        0.63960    0.84970    0.02180    1.000
    C4       C        0.51530    0.85550    0.16610    1.000
    H2       H        0.45210    0.83570    0.12360    1.000
    C5       C        0.49270    0.87720    0.29070    1.000
    C6       C        0.58110    0.90500    0.35830    1.000
    H3       H        0.56550    0.91970    0.44150    1.000
    C7       C        0.36430    0.87390    0.34770    1.000
    C8       C        0.08630    0.28580    0.21040    1.000
    C9       C        0.10840    0.25200    0.33500    1.000
    C10      C        0.12110    0.33990    0.41200    1.000
    H4       H        0.13580    0.31640    0.49680    1.000
    C11      C        0.11090    0.46230    0.35720    1.000
    H5       H        0.11810    0.52540    0.40600    1.000
    C12      C        0.09000    0.49740    0.23070    1.000
    C13      C        0.07790    0.41080    0.15540    1.000
    H6       H        0.06440    0.43410    0.07040    1.000
    C14      C        0.08230    0.63410    0.18000    1.000
    O1       O        0.10150    0.92990    0.06660    1.000
    H7       H        0.18200    0.87900    0.03500    1.000
    O2       O        0.04600    0.90020    0.42960    1.000
    H8       H        0.06400    0.81400    0.47000    1.000
    O3       O        0.33770    0.90880    0.45420    1.000
    O4       O        0.29470    0.83520    0.28500    1.000
    O5       O        0.04840    0.67060    0.07020    1.000
    O6       O        0.10810    0.70140    0.25250    1.000
    Co4      Co       0.90667    0.10475    0.74928    1.000
    Co5      Co       0.14932    0.98332    0.51774    1.000
    Co6      Co       0.02893    0.13649    0.99829    1.000
    N7       N        0.19970    0.06260    0.66510    1.000
    N8       N        0.11810    0.06800    0.76100    1.000
    N9       N        0.16550    0.09760    0.85910    1.000
    N10      N        0.92380    0.82240    0.83640    1.000
    N11      N        0.90640    0.91360    0.74290    1.000
    N12      N        0.88630    0.87540    0.63890    1.000
    C15      C        0.30420    0.08970    0.70340    1.000
    C16      C        0.28230    0.11090    0.82640    1.000
    C17      C        0.37440    0.13760    0.89440    1.000
    H9       H        0.36040    0.15030    0.97820    1.000
    C18      C        0.48470    0.14450    0.83390    1.000
    H10      H        0.54790    0.16430    0.87640    1.000
    C19      C        0.50730    0.12280    0.70930    1.000
    C20      C        0.41890    0.09500    0.64170    1.000
    H11      H        0.43450    0.08030    0.55850    1.000
    C21      C        0.63570    0.12610    0.65230    1.000
    C22      C        0.91370    0.71420    0.78960    1.000
    C23      C        0.89160    0.74800    0.66500    1.000
    C24      C        0.87890    0.66010    0.58800    1.000
    H12      H        0.86420    0.68360    0.50320    1.000
    C25      C        0.88910    0.53770    0.64280    1.000
    H13      H        0.88190    0.47460    0.59400    1.000
    C26      C        0.91000    0.50260    0.76930    1.000
    C27      C        0.92210    0.58920    0.84460    1.000
    H14      H        0.93560    0.56590    0.92960    1.000
    C28      C        0.91770    0.36590    0.82000    1.000
    O7       O        0.89850    0.07010    0.93340    1.000
    H15      H        0.81800    0.12100    0.96500    1.000
    O8       O        0.95400    0.09980    0.57040    1.000
    H16      H        0.93600    0.18600    0.53000    1.000
    O9       O        0.66230    0.09120    0.54580    1.000
    O10      O        0.70530    0.16480    0.71500    1.000
    O11      O        0.95160    0.32940    0.92980    1.000
    O12      O        0.89190    0.29860    0.74750    1.000
