# CIF file generated by openbabel 3.1.0, see https://openbabel.org
data_I
_chemical_name_common 'image0'
_cell_length_a 13.543
_cell_length_b 12.338
_cell_length_c 40.267
_cell_angle_alpha 90
_cell_angle_beta 108.395
_cell_angle_gamma 90
_space_group_name_H-M_alt 'P 1'
_space_group_name_Hall 'P 1'
loop_
    _symmetry_equiv_pos_as_xyz
    x,y,z
loop_
    _atom_site_label
    _atom_site_type_symbol
    _atom_site_fract_x
    _atom_site_fract_y
    _atom_site_fract_z
    _atom_site_occupancy
    Co1      Co       0.32068    0.38794    0.19318    1.000
    Co2      Co       0.12711    0.40886    0.42064    1.000
    O1       O        0.06060    0.53310    0.44687    1.000
    O2       O        0.07930    0.59540    0.50098    1.000
    O3       O        0.22320    0.26630    0.42180    1.000
    O4       O        0.32780    0.14940    0.45861    1.000
    O5       O        0.26125    0.27230    0.69500    1.000
    O6       O        0.20280    0.42120    0.66280    1.000
    O7       O        0.36500    0.97940    0.66371    1.000
    O8       O        0.40220    0.94730    0.61430    1.000
    N1       N        0.29040    0.16960    0.64310    1.000
    N2       N        0.17720    0.36510    0.47180    1.000
    N3       N        0.64510    0.33460    0.21176    1.000
    N4       N        0.47750    0.33230    0.20443    1.000
    N5       N        0.94560    0.08920    0.32286    1.000
    N6       N        0.82860    0.95960    0.31871    1.000
    N7       N        0.96880    0.05820    0.17630    1.000
    N8       N        0.91070    0.94960    0.13126    1.000
    N9       N        0.46530    0.47350    0.29849    1.000
    N10      N        0.36060    0.43280    0.24585    1.000
    N11      N        0.41890    0.57750    0.43914    1.000
    N12      N        0.26150    0.51190    0.43004    1.000
    N13      N        0.83450    0.26460    0.41583    1.000
    N14      N        0.98860    0.31690    0.41373    1.000
    C1       C        0.08990    0.52650    0.48015    1.000
    C2       C        0.26470    0.22620    0.45137    1.000
    C3       C        0.23590    0.32820    0.66673    1.000
    C4       C        0.36340    0.00230    0.63319    1.000
    C5       C        0.14720    0.42310    0.49501    1.000
    C6       C        0.17180    0.38880    0.52948    1.000
    H1       H        0.14990    0.42990    0.54580    1.000
    C7       C        0.22840    0.29400    0.53993    1.000
    C8       C        0.26300    0.23830    0.51510    1.000
    H2       H        0.30550    0.17570    0.52160    1.000
    C9       C        0.23400    0.27640    0.48128    1.000
    C10      C        0.25320    0.27000    0.63569    1.000
    C11      C        0.23370    0.31430    0.60278    1.000
    H3       H        0.20820    0.38630    0.59810    1.000
    C12      C        0.25250    0.25070    0.57631    1.000
    C13      C        0.29400    0.14770    0.58515    1.000
    H4       H        0.30930    0.10350    0.56810    1.000
    C14      C        0.31290    0.10980    0.61875    1.000
    C15      C        0.83690    0.31060    0.22868    1.000
    C16      C        0.87390    0.29530    0.26478    1.000
    C17      C        0.95640    0.22280    0.27886    1.000
    C18      C        0.00590    0.17260    0.25710    1.000
    C19      C        0.97140    0.19490    0.22150    1.000
    C20      C        0.88500    0.26010    0.20670    1.000
    C21      C        0.74600    0.38490    0.21285    1.000
    H5       H        0.75590    0.45260    0.22670    1.000
    H6       H        0.74380    0.40410    0.18880    1.000
    C22      C        0.55420    0.38410    0.19781    1.000
    H7       H        0.54560    0.44920    0.18460    1.000
    C23      C        0.52260    0.24530    0.22445    1.000
    H8       H        0.48700    0.19330    0.23380    1.000
    C24      C        0.62620    0.24470    0.22887    1.000
    H9       H        0.67570    0.19260    0.24130    1.000
    C25      C        0.82410    0.35220    0.28854    1.000
    H10      H        0.76920    0.40070    0.27470    1.000
    H11      H        0.87680    0.39450    0.30600    1.000
    H12      H        0.79390    0.29840    0.30040    1.000
    C26      C        0.99050    0.19380    0.31748    1.000
    H13      H        0.06740    0.18950    0.32650    1.000
    H14      H        0.96770    0.25110    0.33060    1.000
    C27      C        0.84840    0.05440    0.30684    1.000
    H15      H        0.79890    0.09370    0.28890    1.000
    C28      C        0.91970    0.93380    0.34453    1.000
    H16      H        0.93030    0.87050    0.35860    1.000
    C29      C        0.99230    0.01190    0.34696    1.000
    H17      H        0.06180    0.01270    0.36240    1.000
    C30      C        0.09310    0.09430    0.27243    1.000
    H18      H        0.15970    0.13270    0.27850    1.000
    H19      H        0.09160    0.03740    0.25530    1.000
    H20      H        0.08480    0.06140    0.29350    1.000
    C31      C        0.02850    0.14700    0.19804    1.000
    H21      H        0.04100    0.20450    0.18270    1.000
    H22      H        0.09700    0.11910    0.21270    1.000
    C32      C        0.97380    0.02930    0.14487    1.000
    H23      H        0.01810    0.06290    0.13370    1.000
    C33      C        0.86200    0.92520    0.15552    1.000
    H24      H        0.81070    0.87050    0.15300    1.000
    C34      C        0.89830    0.99100    0.18336    1.000
    H25      H        0.87850    0.99060    0.20400    1.000
    C35      C        0.84200    0.27470    0.16692    1.000
    H26      H        0.89050    0.24290    0.15600    1.000
    H27      H        0.83350    0.35210    0.16130    1.000
    H28      H        0.77440    0.23840    0.15800    1.000
    C36      C        0.57730    0.48080    0.36134    1.000
    C37      C        0.54040    0.54440    0.38414    1.000
    C38      C        0.56570    0.51350    0.41922    1.000
    C39      C        0.62560    0.42120    0.43180    1.000
    C40      C        0.66630    0.36090    0.40932    1.000
    C41      C        0.63790    0.38850    0.37377    1.000
    C42      C        0.56000    0.51790    0.32448    1.000
    H29      H        0.55550    0.59800    0.32390    1.000
    H30      H        0.62120    0.49700    0.31750    1.000
    C43      C        0.45430    0.46720    0.26423    1.000
    H31      H        0.50740    0.48530    0.25440    1.000
    C44      C        0.30970    0.41770    0.27000    1.000
    H32      H        0.23990    0.39320    0.26470    1.000
    C45      C        0.37270    0.44240    0.30235    1.000
    H33      H        0.35620    0.43890    0.32360    1.000
    C46      C        0.47530    0.64430    0.37072    1.000
    H34      H        0.41800    0.64740    0.38060    1.000
    H35      H        0.44710    0.64110    0.34510    1.000
    H36      H        0.51880    0.70910    0.37770    1.000
    C47      C        0.53090    0.58710    0.44357    1.000
    H37      H        0.57120    0.56930    0.46810    1.000
    H38      H        0.54660    0.66320    0.43920    1.000
    C48      C        0.35940    0.48900    0.43249    1.000
    H39      H        0.38390    0.41840    0.42980    1.000
    C49      C        0.26090    0.62100    0.43547    1.000
    H40      H        0.20120    0.66170    0.43530    1.000
    C50      C        0.35640    0.66310    0.44111    1.000
    H41      H        0.37640    0.73680    0.44550    1.000
    C51      C        0.64360    0.38340    0.46917    1.000
    H42      H        0.59320    0.41850    0.47860    1.000
    H43      H        0.71430    0.40280    0.48360    1.000
    H44      H        0.63500    0.30460    0.46950    1.000
    C52      C        0.73440    0.26400    0.42301    1.000
    H45      H        0.74850    0.25980    0.44860    1.000
    H46      H        0.69570    0.19780    0.41260    1.000
    C53      C        0.90120    0.34620    0.41947    1.000
    H47      H        0.88770    0.41780    0.42550    1.000
    C54      C        0.97720    0.20890    0.40628    1.000
    H48      H        0.02720    0.16420    0.40090    1.000
    C55      C        0.88280    0.17510    0.40769    1.000
    H49      H        0.85560    0.10350    0.40380    1.000
    C56      C        0.67370    0.32030    0.34863    1.000
    H50      H        0.74030    0.34800    0.34750    1.000
    H51      H        0.62180    0.32350    0.32530    1.000
    H52      H        0.68230    0.24500    0.35680    1.000
    Co3      Co       0.67932    0.88794    0.30682    1.000
    Co4      Co       0.87289    0.90886    0.07936    1.000
    O9       O        0.93940    0.03310    0.05313    1.000
    O10      O        0.92070    0.09540    0.99902    1.000
    O11      O        0.77680    0.76630    0.07820    1.000
    O12      O        0.67220    0.64940    0.04139    1.000
    O13      O        0.73875    0.77230    0.80500    1.000
    O14      O        0.79720    0.92120    0.83720    1.000
    O15      O        0.63500    0.47940    0.83629    1.000
    O16      O        0.59780    0.44730    0.88570    1.000
    N15      N        0.70960    0.66960    0.85690    1.000
    N16      N        0.82280    0.86510    0.02820    1.000
    N17      N        0.35490    0.83460    0.28824    1.000
    N18      N        0.52250    0.83230    0.29557    1.000
    N19      N        0.05440    0.58920    0.17714    1.000
    N20      N        0.17140    0.45960    0.18129    1.000
    N21      N        0.03120    0.55820    0.32370    1.000
    N22      N        0.08930    0.44960    0.36874    1.000
    N23      N        0.53470    0.97350    0.20151    1.000
    N24      N        0.63940    0.93280    0.25415    1.000
    N25      N        0.58110    0.07750    0.06086    1.000
    N26      N        0.73850    0.01190    0.06996    1.000
    N27      N        0.16550    0.76460    0.08417    1.000
    N28      N        0.01140    0.81690    0.08627    1.000
    C57      C        0.91010    0.02650    0.01985    1.000
    C58      C        0.73530    0.72620    0.04863    1.000
    C59      C        0.76410    0.82820    0.83327    1.000
    C60      C        0.63660    0.50230    0.86681    1.000
    C61      C        0.85280    0.92310    0.00499    1.000
    C62      C        0.82820    0.88880    0.97052    1.000
    H53      H        0.85010    0.92990    0.95420    1.000
    C63      C        0.77160    0.79400    0.96007    1.000
    C64      C        0.73700    0.73830    0.98490    1.000
    H54      H        0.69450    0.67570    0.97840    1.000
    C65      C        0.76600    0.77640    0.01872    1.000
    C66      C        0.74680    0.77000    0.86431    1.000
    C67      C        0.76630    0.81430    0.89722    1.000
    H55      H        0.79180    0.88630    0.90190    1.000
    C68      C        0.74750    0.75070    0.92369    1.000
    C69      C        0.70600    0.64770    0.91485    1.000
    H56      H        0.69070    0.60350    0.93190    1.000
    C70      C        0.68710    0.60980    0.88125    1.000
    C71      C        0.16310    0.81060    0.27132    1.000
    C72      C        0.12610    0.79530    0.23522    1.000
    C73      C        0.04360    0.72280    0.22114    1.000
    C74      C        0.99410    0.67260    0.24290    1.000
    C75      C        0.02860    0.69490    0.27850    1.000
    C76      C        0.11500    0.76010    0.29330    1.000
    C77      C        0.25400    0.88490    0.28715    1.000
    H57      H        0.24410    0.95260    0.27330    1.000
    H58      H        0.25620    0.90410    0.31120    1.000
    C78      C        0.44580    0.88410    0.30219    1.000
    H59      H        0.45440    0.94920    0.31540    1.000
    C79      C        0.47740    0.74530    0.27555    1.000
    H60      H        0.51300    0.69330    0.26620    1.000
    C80      C        0.37380    0.74470    0.27113    1.000
    H61      H        0.32430    0.69260    0.25870    1.000
    C81      C        0.17590    0.85220    0.21146    1.000
    H62      H        0.23080    0.90070    0.22530    1.000
    H63      H        0.12320    0.89450    0.19400    1.000
    H64      H        0.20610    0.79840    0.19960    1.000
    C82      C        0.00950    0.69380    0.18252    1.000
    H65      H        0.93260    0.68950    0.17350    1.000
    H66      H        0.03230    0.75110    0.16940    1.000
    C83      C        0.15160    0.55440    0.19316    1.000
    H67      H        0.20110    0.59370    0.21110    1.000
    C84      C        0.08030    0.43380    0.15547    1.000
    H68      H        0.06970    0.37050    0.14140    1.000
    C85      C        0.00770    0.51190    0.15304    1.000
    H69      H        0.93820    0.51270    0.13760    1.000
    C86      C        0.90690    0.59430    0.22757    1.000
    H70      H        0.84030    0.63270    0.22150    1.000
    H71      H        0.90840    0.53740    0.24470    1.000
    H72      H        0.91520    0.56140    0.20650    1.000
    C87      C        0.97150    0.64700    0.30196    1.000
    H73      H        0.95900    0.70450    0.31730    1.000
    H74      H        0.90300    0.61910    0.28730    1.000
    C88      C        0.02620    0.52930    0.35513    1.000
    H75      H        0.98190    0.56290    0.36630    1.000
    C89      C        0.13800    0.42520    0.34448    1.000
    H76      H        0.18930    0.37050    0.34700    1.000
    C90      C        0.10170    0.49100    0.31664    1.000
    H77      H        0.12150    0.49060    0.29600    1.000
    C91      C        0.15800    0.77470    0.33308    1.000
    H78      H        0.10950    0.74290    0.34400    1.000
    H79      H        0.16650    0.85210    0.33870    1.000
    H80      H        0.22560    0.73840    0.34200    1.000
    C92      C        0.42270    0.98080    0.13866    1.000
    C93      C        0.45960    0.04440    0.11586    1.000
    C94      C        0.43430    0.01350    0.08078    1.000
    C95      C        0.37440    0.92120    0.06820    1.000
    C96      C        0.33370    0.86090    0.09068    1.000
    C97      C        0.36210    0.88850    0.12623    1.000
    C98      C        0.44000    0.01790    0.17552    1.000
    H81      H        0.44450    0.09800    0.17610    1.000
    H82      H        0.37880    0.99700    0.18250    1.000
    C99      C        0.54570    0.96720    0.23577    1.000
    H83      H        0.49260    0.98530    0.24560    1.000
    C100     C        0.69030    0.91770    0.23000    1.000
    H84      H        0.76010    0.89320    0.23530    1.000
    C101     C        0.62730    0.94240    0.19765    1.000
    H85      H        0.64380    0.93890    0.17640    1.000
    C102     C        0.52470    0.14430    0.12928    1.000
    H86      H        0.58200    0.14740    0.11940    1.000
    H87      H        0.55290    0.14110    0.15490    1.000
    H88      H        0.48120    0.20910    0.12230    1.000
    C103     C        0.46910    0.08710    0.05643    1.000
    H89      H        0.42880    0.06930    0.03190    1.000
    H90      H        0.45340    0.16320    0.06080    1.000
    C104     C        0.64060    0.98900    0.06751    1.000
    H91      H        0.61610    0.91840    0.07020    1.000
    C105     C        0.73910    0.12100    0.06453    1.000
    H92      H        0.79880    0.16170    0.06470    1.000
    C106     C        0.64360    0.16310    0.05889    1.000
    H93      H        0.62360    0.23680    0.05450    1.000
    C107     C        0.35640    0.88340    0.03083    1.000
    H94      H        0.40680    0.91850    0.02140    1.000
    H95      H        0.28570    0.90280    0.01640    1.000
    H96      H        0.36500    0.80460    0.03050    1.000
    C108     C        0.26560    0.76400    0.07699    1.000
    H97      H        0.25150    0.75980    0.05140    1.000
    H98      H        0.30430    0.69780    0.08740    1.000
    C109     C        0.09880    0.84620    0.08053    1.000
    H99      H        0.11230    0.91780    0.07450    1.000
    C110     C        0.02280    0.70890    0.09372    1.000
    H100     H        0.97280    0.66420    0.09910    1.000
    C111     C        0.11720    0.67510    0.09231    1.000
    H101     H        0.14440    0.60350    0.09620    1.000
    C112     C        0.32630    0.82030    0.15137    1.000
    H102     H        0.25970    0.84800    0.15250    1.000
    H103     H        0.37820    0.82350    0.17470    1.000
    H104     H        0.31770    0.74500    0.14320    1.000
    Co5      Co       0.67932    0.61206    0.80682    1.000
    Co6      Co       0.87289    0.59114    0.57936    1.000
    O17      O        0.93940    0.46690    0.55313    1.000
    O18      O        0.92070    0.40460    0.49902    1.000
    O19      O        0.77680    0.73370    0.57820    1.000
    O20      O        0.67220    0.85060    0.54139    1.000
    O21      O        0.73875    0.72770    0.30500    1.000
    O22      O        0.79720    0.57880    0.33720    1.000
    O23      O        0.63500    0.02060    0.33629    1.000
    O24      O        0.59780    0.05270    0.38570    1.000
    N29      N        0.70960    0.83040    0.35690    1.000
    N30      N        0.82280    0.63490    0.52820    1.000
    N31      N        0.35490    0.66540    0.78824    1.000
    N32      N        0.52250    0.66770    0.79557    1.000
    N33      N        0.05440    0.91080    0.67714    1.000
    N34      N        0.17140    0.04040    0.68129    1.000
    N35      N        0.03120    0.94180    0.82370    1.000
    N36      N        0.08930    0.05040    0.86874    1.000
    N37      N        0.53470    0.52650    0.70151    1.000
    N38      N        0.63940    0.56720    0.75415    1.000
    N39      N        0.58110    0.42250    0.56086    1.000
    N40      N        0.73850    0.48810    0.56996    1.000
    N41      N        0.16550    0.73540    0.58417    1.000
    N42      N        0.01140    0.68310    0.58627    1.000
    C113     C        0.91010    0.47350    0.51985    1.000
    C114     C        0.73530    0.77380    0.54863    1.000
    C115     C        0.76410    0.67180    0.33327    1.000
    C116     C        0.63660    0.99770    0.36681    1.000
    C117     C        0.85280    0.57690    0.50499    1.000
    C118     C        0.82820    0.61120    0.47052    1.000
    H105     H        0.85010    0.57010    0.45420    1.000
    C119     C        0.77160    0.70600    0.46007    1.000
    C120     C        0.73700    0.76170    0.48490    1.000
    H106     H        0.69450    0.82430    0.47840    1.000
    C121     C        0.76600    0.72360    0.51872    1.000
    C122     C        0.74680    0.73000    0.36431    1.000
    C123     C        0.76630    0.68570    0.39722    1.000
    H107     H        0.79180    0.61370    0.40190    1.000
    C124     C        0.74750    0.74930    0.42369    1.000
    C125     C        0.70600    0.85230    0.41485    1.000
    H108     H        0.69070    0.89650    0.43190    1.000
    C126     C        0.68710    0.89020    0.38125    1.000
    C127     C        0.16310    0.68940    0.77132    1.000
    C128     C        0.12610    0.70470    0.73522    1.000
    C129     C        0.04360    0.77720    0.72114    1.000
    C130     C        0.99410    0.82740    0.74290    1.000
    C131     C        0.02860    0.80510    0.77850    1.000
    C132     C        0.11500    0.73990    0.79330    1.000
    C133     C        0.25400    0.61510    0.78715    1.000
    H109     H        0.24410    0.54740    0.77330    1.000
    H110     H        0.25620    0.59590    0.81120    1.000
    C134     C        0.44580    0.61590    0.80219    1.000
    H111     H        0.45440    0.55080    0.81540    1.000
    C135     C        0.47740    0.75470    0.77555    1.000
    H112     H        0.51300    0.80670    0.76620    1.000
    C136     C        0.37380    0.75530    0.77113    1.000
    H113     H        0.32430    0.80740    0.75870    1.000
    C137     C        0.17590    0.64780    0.71146    1.000
    H114     H        0.23080    0.59930    0.72530    1.000
    H115     H        0.12320    0.60550    0.69400    1.000
    H116     H        0.20610    0.70160    0.69960    1.000
    C138     C        0.00950    0.80620    0.68252    1.000
    H117     H        0.93260    0.81050    0.67350    1.000
    H118     H        0.03230    0.74890    0.66940    1.000
    C139     C        0.15160    0.94560    0.69316    1.000
    H119     H        0.20110    0.90630    0.71110    1.000
    C140     C        0.08030    0.06620    0.65547    1.000
    H120     H        0.06970    0.12950    0.64140    1.000
    C141     C        0.00770    0.98810    0.65304    1.000
    H121     H        0.93820    0.98730    0.63760    1.000
    C142     C        0.90690    0.90570    0.72757    1.000
    H122     H        0.84030    0.86730    0.72150    1.000
    H123     H        0.90840    0.96260    0.74470    1.000
    H124     H        0.91520    0.93860    0.70650    1.000
    C143     C        0.97150    0.85300    0.80196    1.000
    H125     H        0.95900    0.79550    0.81730    1.000
    H126     H        0.90300    0.88090    0.78730    1.000
    C144     C        0.02620    0.97070    0.85513    1.000
    H127     H        0.98190    0.93710    0.86630    1.000
    C145     C        0.13800    0.07480    0.84448    1.000
    H128     H        0.18930    0.12950    0.84700    1.000
    C146     C        0.10170    0.00900    0.81664    1.000
    H129     H        0.12150    0.00940    0.79600    1.000
    C147     C        0.15800    0.72530    0.83308    1.000
    H130     H        0.10950    0.75710    0.84400    1.000
    H131     H        0.16650    0.64790    0.83870    1.000
    H132     H        0.22560    0.76160    0.84200    1.000
    C148     C        0.42270    0.51920    0.63866    1.000
    C149     C        0.45960    0.45560    0.61586    1.000
    C150     C        0.43430    0.48650    0.58078    1.000
    C151     C        0.37440    0.57880    0.56820    1.000
    C152     C        0.33370    0.63910    0.59068    1.000
    C153     C        0.36210    0.61150    0.62623    1.000
    C154     C        0.44000    0.48210    0.67552    1.000
    H133     H        0.44450    0.40200    0.67610    1.000
    H134     H        0.37880    0.50300    0.68250    1.000
    C155     C        0.54570    0.53280    0.73577    1.000
    H135     H        0.49260    0.51470    0.74560    1.000
    C156     C        0.69030    0.58230    0.73000    1.000
    H136     H        0.76010    0.60680    0.73530    1.000
    C157     C        0.62730    0.55760    0.69765    1.000
    H137     H        0.64380    0.56110    0.67640    1.000
    C158     C        0.52470    0.35570    0.62928    1.000
    H138     H        0.58200    0.35260    0.61940    1.000
    H139     H        0.55290    0.35890    0.65490    1.000
    H140     H        0.48120    0.29090    0.62230    1.000
    C159     C        0.46910    0.41290    0.55643    1.000
    H141     H        0.42880    0.43070    0.53190    1.000
    H142     H        0.45340    0.33680    0.56080    1.000
    C160     C        0.64060    0.51100    0.56751    1.000
    H143     H        0.61610    0.58160    0.57020    1.000
    C161     C        0.73910    0.37900    0.56453    1.000
    H144     H        0.79880    0.33830    0.56470    1.000
    C162     C        0.64360    0.33690    0.55889    1.000
    H145     H        0.62360    0.26320    0.55450    1.000
    C163     C        0.35640    0.61660    0.53083    1.000
    H146     H        0.40680    0.58150    0.52140    1.000
    H147     H        0.28570    0.59720    0.51640    1.000
    H148     H        0.36500    0.69540    0.53050    1.000
    C164     C        0.26560    0.73600    0.57699    1.000
    H149     H        0.25150    0.74020    0.55140    1.000
    H150     H        0.30430    0.80220    0.58740    1.000
    C165     C        0.09880    0.65380    0.58053    1.000
    H151     H        0.11230    0.58220    0.57450    1.000
    C166     C        0.02280    0.79110    0.59372    1.000
    H152     H        0.97280    0.83580    0.59910    1.000
    C167     C        0.11720    0.82490    0.59231    1.000
    H153     H        0.14440    0.89650    0.59620    1.000
    C168     C        0.32630    0.67970    0.65137    1.000
    H154     H        0.25970    0.65200    0.65250    1.000
    H155     H        0.37820    0.67650    0.67470    1.000
    H156     H        0.31770    0.75500    0.64320    1.000
    Co7      Co       0.32068    0.11206    0.69318    1.000
    Co8      Co       0.12711    0.09114    0.92064    1.000
    O25      O        0.06060    0.96690    0.94687    1.000
    O26      O        0.07930    0.90460    0.00098    1.000
    O27      O        0.22320    0.23370    0.92180    1.000
    O28      O        0.32780    0.35060    0.95861    1.000
    O29      O        0.26125    0.22770    0.19500    1.000
    O30      O        0.20280    0.07880    0.16280    1.000
    O31      O        0.36500    0.52060    0.16371    1.000
    O32      O        0.40220    0.55270    0.11430    1.000
    N43      N        0.29040    0.33040    0.14310    1.000
    N44      N        0.17720    0.13490    0.97180    1.000
    N45      N        0.64510    0.16540    0.71176    1.000
    N46      N        0.47750    0.16770    0.70443    1.000
    N47      N        0.94560    0.41080    0.82286    1.000
    N48      N        0.82860    0.54040    0.81871    1.000
    N49      N        0.96880    0.44180    0.67630    1.000
    N50      N        0.91070    0.55040    0.63126    1.000
    N51      N        0.46530    0.02650    0.79849    1.000
    N52      N        0.36060    0.06720    0.74585    1.000
    N53      N        0.41890    0.92250    0.93914    1.000
    N54      N        0.26150    0.98810    0.93004    1.000
    N55      N        0.83450    0.23540    0.91583    1.000
    N56      N        0.98860    0.18310    0.91373    1.000
    C169     C        0.08990    0.97350    0.98015    1.000
    C170     C        0.26470    0.27380    0.95137    1.000
    C171     C        0.23590    0.17180    0.16673    1.000
    C172     C        0.36340    0.49770    0.13319    1.000
    C173     C        0.14720    0.07690    0.99501    1.000
    C174     C        0.17180    0.11120    0.02948    1.000
    H157     H        0.14990    0.07010    0.04580    1.000
    C175     C        0.22840    0.20600    0.03993    1.000
    C176     C        0.26300    0.26170    0.01510    1.000
    H158     H        0.30550    0.32430    0.02160    1.000
    C177     C        0.23400    0.22360    0.98128    1.000
    C178     C        0.25320    0.23000    0.13569    1.000
    C179     C        0.23370    0.18570    0.10278    1.000
    H159     H        0.20820    0.11370    0.09810    1.000
    C180     C        0.25250    0.24930    0.07631    1.000
    C181     C        0.29400    0.35230    0.08515    1.000
    H160     H        0.30930    0.39650    0.06810    1.000
    C182     C        0.31290    0.39020    0.11875    1.000
    C183     C        0.83690    0.18940    0.72868    1.000
    C184     C        0.87390    0.20470    0.76478    1.000
    C185     C        0.95640    0.27720    0.77886    1.000
    C186     C        0.00590    0.32740    0.75710    1.000
    C187     C        0.97140    0.30510    0.72150    1.000
    C188     C        0.88500    0.23990    0.70670    1.000
    C189     C        0.74600    0.11510    0.71285    1.000
    H161     H        0.75590    0.04740    0.72670    1.000
    H162     H        0.74380    0.09590    0.68880    1.000
    C190     C        0.55420    0.11590    0.69781    1.000
    H163     H        0.54560    0.05080    0.68460    1.000
    C191     C        0.52260    0.25470    0.72445    1.000
    H164     H        0.48700    0.30670    0.73380    1.000
    C192     C        0.62620    0.25530    0.72887    1.000
    H165     H        0.67570    0.30740    0.74130    1.000
    C193     C        0.82410    0.14780    0.78854    1.000
    H166     H        0.76920    0.09930    0.77470    1.000
    H167     H        0.87680    0.10550    0.80600    1.000
    H168     H        0.79390    0.20160    0.80040    1.000
    C194     C        0.99050    0.30620    0.81748    1.000
    H169     H        0.06740    0.31050    0.82650    1.000
    H170     H        0.96770    0.24890    0.83060    1.000
    C195     C        0.84840    0.44560    0.80684    1.000
    H171     H        0.79890    0.40630    0.78890    1.000
    C196     C        0.91970    0.56620    0.84453    1.000
    H172     H        0.93030    0.62950    0.85860    1.000
    C197     C        0.99230    0.48810    0.84696    1.000
    H173     H        0.06180    0.48730    0.86240    1.000
    C198     C        0.09310    0.40570    0.77243    1.000
    H174     H        0.15970    0.36730    0.77850    1.000
    H175     H        0.09160    0.46260    0.75530    1.000
    H176     H        0.08480    0.43860    0.79350    1.000
    C199     C        0.02850    0.35300    0.69804    1.000
    H177     H        0.04100    0.29550    0.68270    1.000
    H178     H        0.09700    0.38090    0.71270    1.000
    C200     C        0.97380    0.47070    0.64487    1.000
    H179     H        0.01810    0.43710    0.63370    1.000
    C201     C        0.86200    0.57480    0.65552    1.000
    H180     H        0.81070    0.62950    0.65300    1.000
    C202     C        0.89830    0.50900    0.68336    1.000
    H181     H        0.87850    0.50940    0.70400    1.000
    C203     C        0.84200    0.22530    0.66692    1.000
    H182     H        0.89050    0.25710    0.65600    1.000
    H183     H        0.83350    0.14790    0.66130    1.000
    H184     H        0.77440    0.26160    0.65800    1.000
    C204     C        0.57730    0.01920    0.86134    1.000
    C205     C        0.54040    0.95560    0.88414    1.000
    C206     C        0.56570    0.98650    0.91922    1.000
    C207     C        0.62560    0.07880    0.93180    1.000
    C208     C        0.66630    0.13910    0.90932    1.000
    C209     C        0.63790    0.11150    0.87377    1.000
    C210     C        0.56000    0.98210    0.82448    1.000
    H185     H        0.55550    0.90200    0.82390    1.000
    H186     H        0.62120    0.00300    0.81750    1.000
    C211     C        0.45430    0.03280    0.76423    1.000
    H187     H        0.50740    0.01470    0.75440    1.000
    C212     C        0.30970    0.08230    0.77000    1.000
    H188     H        0.23990    0.10680    0.76470    1.000
    C213     C        0.37270    0.05760    0.80235    1.000
    H189     H        0.35620    0.06110    0.82360    1.000
    C214     C        0.47530    0.85570    0.87072    1.000
    H190     H        0.41800    0.85260    0.88060    1.000
    H191     H        0.44710    0.85890    0.84510    1.000
    H192     H        0.51880    0.79090    0.87770    1.000
    C215     C        0.53090    0.91290    0.94357    1.000
    H193     H        0.57120    0.93070    0.96810    1.000
    H194     H        0.54660    0.83680    0.93920    1.000
    C216     C        0.35940    0.01100    0.93249    1.000
    H195     H        0.38390    0.08160    0.92980    1.000
    C217     C        0.26090    0.87900    0.93547    1.000
    H196     H        0.20120    0.83830    0.93530    1.000
    C218     C        0.35640    0.83690    0.94111    1.000
    H197     H        0.37640    0.76320    0.94550    1.000
    C219     C        0.64360    0.11660    0.96917    1.000
    H198     H        0.59320    0.08150    0.97860    1.000
    H199     H        0.71430    0.09720    0.98360    1.000
    H200     H        0.63500    0.19540    0.96950    1.000
    C220     C        0.73440    0.23600    0.92301    1.000
    H201     H        0.74850    0.24020    0.94860    1.000
    H202     H        0.69570    0.30220    0.91260    1.000
    C221     C        0.90120    0.15380    0.91947    1.000
    H203     H        0.88770    0.08220    0.92550    1.000
    C222     C        0.97720    0.29110    0.90628    1.000
    H204     H        0.02720    0.33580    0.90090    1.000
    C223     C        0.88280    0.32490    0.90769    1.000
    H205     H        0.85560    0.39650    0.90380    1.000
    C224     C        0.67370    0.17970    0.84863    1.000
    H206     H        0.74030    0.15200    0.84750    1.000
    H207     H        0.62180    0.17650    0.82530    1.000
    H208     H        0.68230    0.25500    0.85680    1.000
