# CIF file generated by openbabel 3.1.0, see https://openbabel.org
data_I
_chemical_name_common 'image0'
_cell_length_a 14.5356
_cell_length_b 15.8989
_cell_length_c 17.2554
_cell_angle_alpha 112.547
_cell_angle_beta 111.545
_cell_angle_gamma 95.787
_space_group_name_H-M_alt 'P 1'
_space_group_name_Hall 'P 1'
loop_
    _symmetry_equiv_pos_as_xyz
    x,y,z
loop_
    _atom_site_label
    _atom_site_type_symbol
    _atom_site_fract_x
    _atom_site_fract_y
    _atom_site_fract_z
    _atom_site_occupancy
    C1       C        0.53480    0.70890    0.63870    1.000
    C2       C        0.54680    0.85230    0.75600    1.000
    H1       H        0.50950    0.81440    0.77030    1.000
    C3       C        0.58360    0.94470    0.80760    1.000
    C4       C        0.66090    0.00380    0.80810    1.000
    H2       H        0.68560    0.98020    0.76370    1.000
    C5       C        0.70120    0.09780    0.87460    1.000
    H3       H        0.75300    0.13750    0.87490    1.000
    C6       C        0.66480    0.13260    0.94040    1.000
    C7       C        0.58800    0.07430    0.94030    1.000
    H4       H        0.56300    0.09850    0.98440    1.000
    C8       C        0.54760    0.97930    0.87430    1.000
    H5       H        0.49680    0.93930    0.87490    1.000
    C9       C        0.70140    0.24040    0.00750    1.000
    C10      C        0.38120    0.61210    0.50760    1.000
    H6       H        0.42230    0.57700    0.48690    1.000
    C11      C        0.28600    0.60090    0.44880    1.000
    C12      C        0.23260    0.66900    0.46010    1.000
    H7       H        0.26410    0.72820    0.51210    1.000
    C13      C        0.13250    0.64910    0.39400    1.000
    H8       H        0.09770    0.69550    0.40190    1.000
    C14      C        0.08370    0.56080    0.31650    1.000
    C15      C        0.13790    0.49210    0.30580    1.000
    H9       H        0.10640    0.43240    0.25440    1.000
    C16      C        0.23710    0.51250    0.37080    1.000
    H10      H        0.27220    0.46640    0.36270    1.000
    C17      C        0.97860    0.55280    0.26020    1.000
    C18      C        0.62900    0.65550    0.75270    1.000
    H11      H        0.68740    0.68360    0.75140    1.000
    C19      C        0.63460    0.61580    0.80330    1.000
    C20      C        0.73960    0.62310    0.86230    1.000
    H12      H        0.79560    0.65470    0.86040    1.000
    C21      C        0.75300    0.58150    0.92110    1.000
    H13      H        0.81970    0.58700    0.96100    1.000
    C22      C        0.67190    0.53250    0.92270    1.000
    C23      C        0.57250    0.52280    0.86860    1.000
    H14      H        0.51860    0.49130    0.87310    1.000
    C24      C        0.55270    0.56250    0.80420    1.000
    H15      H        0.48530    0.55280    0.76290    1.000
    C25      C        0.69250    0.49210    0.98620    1.000
    C26      C        0.59190    0.70610    0.53590    1.000
    H16      H        0.57680    0.76410    0.55050    1.000
    C27      C        0.62420    0.66480    0.46340    1.000
    C28      C        0.63250    0.57420    0.43820    1.000
    H17      H        0.61500    0.53950    0.46610    1.000
    C29      C        0.66690    0.53420    0.37110    1.000
    H18      H        0.67430    0.47320    0.35540    1.000
    C30      C        0.69020    0.58410    0.32740    1.000
    C31      C        0.68120    0.67480    0.35400    1.000
    H19      H        0.69830    0.70930    0.32580    1.000
    C32      C        0.64770    0.71690    0.42090    1.000
    H20      H        0.64110    0.77810    0.43710    1.000
    C33      C        0.71730    0.54010    0.24650    1.000
    C34      C        0.71720    0.76700    0.07470    1.000
    C35      C        0.80340    0.82220    0.08240    1.000
    H21      H        0.86900    0.82310    0.11960    1.000
    C36      C        0.79110    0.87670    0.03370    1.000
    H22      H        0.84860    0.91400    0.03870    1.000
    C37      C        0.69300    0.87460    0.97830    1.000
    H23      H        0.68470    0.91050    0.94580    1.000
    C38      C        0.60760    0.81960    0.97090    1.000
    H24      H        0.54210    0.81870    0.93320    1.000
    C39      C        0.61810    0.76560    0.01890    1.000
    C40      C        0.60690    0.67480    0.08580    1.000
    H25      H        0.57690    0.63200    0.10020    1.000
    Cd1      Cd       0.76231    0.42209    0.11116    1.000
    Cd2      Cd       0.82943    0.66152    0.18644    1.000
    N1       N        0.70760    0.70690    0.11600    1.000
    N2       N        0.55310    0.71290    0.03090    1.000
    O1       O        0.56660    0.81510    0.67970    1.000
    O2       O        0.78210    0.29180    0.01600    1.000
    O3       O        0.64940    0.27510    0.04700    1.000
    O4       O        0.42040    0.68150    0.60650    1.000
    O5       O        0.93000    0.46110    0.19330    1.000
    O6       O        0.93540    0.61000    0.26840    1.000
    O7       O        0.52580    0.65590    0.69510    1.000
    O8       O        0.62570    0.43390    0.97860    1.000
    O9       O        0.78030    0.51660    0.04850    1.000
    O10      O        0.58490    0.65170    0.58290    1.000
    O11      O        0.73910    0.46280    0.23140    1.000
    O12      O        0.70740    0.58860    0.20160    1.000
    C41      C        0.46520    0.29110    0.36130    1.000
    C42      C        0.45320    0.14770    0.24400    1.000
    H26      H        0.49050    0.18560    0.22970    1.000
    C43      C        0.41640    0.05530    0.19240    1.000
    C44      C        0.33910    0.99620    0.19190    1.000
    H27      H        0.31440    0.01980    0.23630    1.000
    C45      C        0.29880    0.90220    0.12540    1.000
    H28      H        0.24700    0.86250    0.12510    1.000
    C46      C        0.33520    0.86740    0.05960    1.000
    C47      C        0.41200    0.92570    0.05970    1.000
    H29      H        0.43700    0.90150    0.01560    1.000
    C48      C        0.45240    0.02070    0.12570    1.000
    H30      H        0.50320    0.06070    0.12510    1.000
    C49      C        0.29860    0.75960    0.99250    1.000
    C50      C        0.61880    0.38790    0.49240    1.000
    H31      H        0.57770    0.42300    0.51310    1.000
    C51      C        0.71400    0.39910    0.55120    1.000
    C52      C        0.76740    0.33100    0.53990    1.000
    H32      H        0.73590    0.27180    0.48790    1.000
    C53      C        0.86750    0.35090    0.60600    1.000
    H33      H        0.90230    0.30450    0.59810    1.000
    C54      C        0.91630    0.43920    0.68350    1.000
    C55      C        0.86210    0.50790    0.69420    1.000
    H34      H        0.89360    0.56760    0.74560    1.000
    C56      C        0.76290    0.48750    0.62920    1.000
    H35      H        0.72780    0.53360    0.63730    1.000
    C57      C        0.02140    0.44720    0.73980    1.000
    C58      C        0.37100    0.34450    0.24730    1.000
    H36      H        0.31260    0.31640    0.24860    1.000
    C59      C        0.36540    0.38420    0.19670    1.000
    C60      C        0.26040    0.37690    0.13770    1.000
    H37      H        0.20440    0.34530    0.13960    1.000
    C61      C        0.24700    0.41850    0.07890    1.000
    H38      H        0.18030    0.41300    0.03900    1.000
    C62      C        0.32810    0.46750    0.07730    1.000
    C63      C        0.42750    0.47720    0.13140    1.000
    H39      H        0.48140    0.50870    0.12690    1.000
    C64      C        0.44730    0.43750    0.19580    1.000
    H40      H        0.51470    0.44720    0.23710    1.000
    C65      C        0.30750    0.50790    0.01380    1.000
    C66      C        0.40810    0.29390    0.46410    1.000
    H41      H        0.42320    0.23590    0.44950    1.000
    C67      C        0.37580    0.33520    0.53660    1.000
    C68      C        0.36750    0.42580    0.56180    1.000
    H42      H        0.38500    0.46050    0.53390    1.000
    C69      C        0.33310    0.46580    0.62890    1.000
    H43      H        0.32570    0.52680    0.64460    1.000
    C70      C        0.30980    0.41590    0.67260    1.000
    C71      C        0.31880    0.32520    0.64600    1.000
    H44      H        0.30170    0.29070    0.67420    1.000
    C72      C        0.35230    0.28310    0.57910    1.000
    H45      H        0.35890    0.22190    0.56290    1.000
    C73      C        0.28270    0.45990    0.75350    1.000
    C74      C        0.28280    0.23300    0.92530    1.000
    C75      C        0.19660    0.17780    0.91760    1.000
    H46      H        0.13100    0.17690    0.88040    1.000
    C76      C        0.20890    0.12330    0.96630    1.000
    H47      H        0.15140    0.08600    0.96130    1.000
    C77      C        0.30700    0.12540    0.02170    1.000
    H48      H        0.31530    0.08950    0.05420    1.000
    C78      C        0.39240    0.18040    0.02910    1.000
    H49      H        0.45790    0.18130    0.06680    1.000
    C79      C        0.38190    0.23440    0.98110    1.000
    C80      C        0.39310    0.32520    0.91420    1.000
    H50      H        0.42310    0.36800    0.89980    1.000
    Cd3      Cd       0.23769    0.57791    0.88884    1.000
    Cd4      Cd       0.17057    0.33848    0.81356    1.000
    N3       N        0.29240    0.29310    0.88400    1.000
    N4       N        0.44690    0.28710    0.96910    1.000
    O13      O        0.43340    0.18490    0.32030    1.000
    O14      O        0.21790    0.70820    0.98400    1.000
    O15      O        0.35060    0.72490    0.95300    1.000
    O16      O        0.57960    0.31850    0.39350    1.000
    O17      O        0.07000    0.53890    0.80670    1.000
    O18      O        0.06460    0.39000    0.73160    1.000
    O19      O        0.47420    0.34410    0.30490    1.000
    O20      O        0.37430    0.56610    0.02140    1.000
    O21      O        0.21970    0.48340    0.95150    1.000
    O22      O        0.41510    0.34830    0.41710    1.000
    O23      O        0.26090    0.53720    0.76860    1.000
    O24      O        0.29260    0.41140    0.79840    1.000
