# CIF file generated by openbabel 3.1.0, see https://openbabel.org
data_I
_chemical_name_common 'image0'
_cell_length_a 16.252
_cell_length_b 11.8738
_cell_length_c 9.5585
_cell_angle_alpha 90
_cell_angle_beta 114.588
_cell_angle_gamma 90
_space_group_name_H-M_alt 'P 1'
_space_group_name_Hall 'P 1'
loop_
    _symmetry_equiv_pos_as_xyz
    x,y,z
loop_
    _atom_site_label
    _atom_site_type_symbol
    _atom_site_fract_x
    _atom_site_fract_y
    _atom_site_fract_z
    _atom_site_occupancy
    O1       O        0.40891    0.42821    0.80186    1.000
    O2       O        0.39856    0.49613    0.57751    1.000
    O3       O        0.35012    0.22442    0.81228    1.000
    H1       H        0.38180    0.28150    0.85190    1.000
    C1       C        0.31237    0.33450    0.57671    1.000
    C2       C        0.30147    0.24208    0.65901    1.000
    C3       C        0.26090    0.34103    0.41807    1.000
    C4       C        0.37862    0.42636    0.65678    1.000
    O4       O        0.26520    0.41500    0.31460    1.000
    H2       H        0.30290    0.46560    0.36050    1.000
    O5       O        0.90891    0.92821    0.80186    1.000
    O6       O        0.89856    0.99613    0.57751    1.000
    O7       O        0.85012    0.72442    0.81228    1.000
    H3       H        0.88180    0.78150    0.85190    1.000
    C5       C        0.81237    0.83450    0.57671    1.000
    C6       C        0.80147    0.74208    0.65901    1.000
    C7       C        0.76090    0.84103    0.41807    1.000
    C8       C        0.87862    0.92636    0.65678    1.000
    O8       O        0.76520    0.91500    0.31460    1.000
    H4       H        0.80290    0.96560    0.36050    1.000
    O9       O        0.59109    0.42821    0.69814    1.000
    O10      O        0.60144    0.49613    0.92249    1.000
    O11      O        0.64988    0.22442    0.68772    1.000
    H5       H        0.61820    0.28150    0.64810    1.000
    C9       C        0.68763    0.33450    0.92329    1.000
    C10      C        0.69853    0.24208    0.84099    1.000
    C11      C        0.73910    0.34103    0.08193    1.000
    C12      C        0.62138    0.42636    0.84322    1.000
    O12      O        0.73480    0.41500    0.18540    1.000
    H6       H        0.69710    0.46560    0.13950    1.000
    O13      O        0.09109    0.92821    0.69814    1.000
    O14      O        0.10144    0.99613    0.92249    1.000
    O15      O        0.14988    0.72442    0.68772    1.000
    H7       H        0.11820    0.78150    0.64810    1.000
    C13      C        0.18763    0.83450    0.92329    1.000
    C14      C        0.19853    0.74208    0.84099    1.000
    C15      C        0.23910    0.84103    0.08193    1.000
    C16      C        0.12138    0.92636    0.84322    1.000
    O16      O        0.23480    0.91500    0.18540    1.000
    H8       H        0.19710    0.96560    0.13950    1.000
    O17      O        0.59109    0.57179    0.19814    1.000
    O18      O        0.60144    0.50387    0.42249    1.000
    O19      O        0.64988    0.77558    0.18772    1.000
    H9       H        0.61820    0.71850    0.14810    1.000
    C17      C        0.68763    0.66550    0.42329    1.000
    C18      C        0.69853    0.75792    0.34099    1.000
    C19      C        0.73910    0.65897    0.58193    1.000
    C20      C        0.62138    0.57364    0.34322    1.000
    O20      O        0.73480    0.58500    0.68540    1.000
    H10      H        0.69710    0.53440    0.63950    1.000
    O21      O        0.09109    0.07179    0.19814    1.000
    O22      O        0.10144    0.00387    0.42249    1.000
    O23      O        0.14988    0.27558    0.18772    1.000
    H11      H        0.11820    0.21850    0.14810    1.000
    C21      C        0.18763    0.16550    0.42329    1.000
    C22      C        0.19853    0.25792    0.34099    1.000
    C23      C        0.23910    0.15897    0.58193    1.000
    C24      C        0.12138    0.07364    0.34322    1.000
    O24      O        0.23480    0.08500    0.68540    1.000
    H12      H        0.19710    0.03440    0.63950    1.000
    O25      O        0.40891    0.57179    0.30186    1.000
    O26      O        0.39856    0.50387    0.07751    1.000
    O27      O        0.35012    0.77558    0.31228    1.000
    H13      H        0.38180    0.71850    0.35190    1.000
    C25      C        0.31237    0.66550    0.07671    1.000
    C26      C        0.30147    0.75792    0.15901    1.000
    C27      C        0.26090    0.65897    0.91807    1.000
    C28      C        0.37862    0.57364    0.15678    1.000
    O28      O        0.26520    0.58500    0.81460    1.000
    H14      H        0.30290    0.53440    0.86050    1.000
    O29      O        0.90891    0.07179    0.30186    1.000
    O30      O        0.89856    0.00387    0.07751    1.000
    O31      O        0.85012    0.27558    0.31228    1.000
    H15      H        0.88180    0.21850    0.35190    1.000
    C29      C        0.81237    0.16550    0.07671    1.000
    C30      C        0.80147    0.25792    0.15901    1.000
    C31      C        0.76090    0.15897    0.91807    1.000
    C32      C        0.87862    0.07364    0.15678    1.000
    O32      O        0.76520    0.08500    0.81460    1.000
    H16      H        0.80290    0.03440    0.86050    1.000
    Mg1      Mg       0.50000    0.50000    0.00000    1.000
    Mg2      Mg       0.00000    0.00000    0.00000    1.000
    Mg3      Mg       0.50000    0.50000    0.50000    1.000
    Mg4      Mg       0.00000    0.00000    0.50000    1.000
