# CIF file generated by openbabel 3.1.0, see https://openbabel.org
data_I
_chemical_name_common 'RUHCED'
_cell_length_a 6.712
_cell_length_b 11.2486
_cell_length_c 17.965
_cell_angle_alpha 90
_cell_angle_beta 91.975
_cell_angle_gamma 90
_space_group_name_H-M_alt 'P 1'
_space_group_name_Hall 'P 1'
loop_
    _symmetry_equiv_pos_as_xyz
    x,y,z
loop_
    _atom_site_label
    _atom_site_type_symbol
    _atom_site_fract_x
    _atom_site_fract_y
    _atom_site_fract_z
    _atom_site_occupancy
    O1       O        0.39440    0.87850    0.42750    1.000
    C2       C        0.23800    0.86920    0.39460    1.000
    C3       C        0.24030    0.80300    0.31870    1.000
    C4       C        0.07160    0.78340    0.27780    1.000
    C5       C        0.08060    0.72860    0.20820    1.000
    O6       O        0.43020    0.59800    0.08750    1.000
    H7       H        0.55460    0.79000    0.32370    1.000
    H8       H        0.56970    0.68900    0.20180    1.000
    H9       H        0.25000    0.33420    0.00000    1.000
    O10      O        0.89440    0.37850    0.92750    1.000
    C11      C        0.73800    0.36920    0.89460    1.000
    C12      C        0.74030    0.30300    0.81870    1.000
    C13      C        0.57160    0.28340    0.77780    1.000
    C14      C        0.58060    0.22860    0.70820    1.000
    O15      O        0.93020    0.09800    0.58750    1.000
    H16      H        0.05460    0.29000    0.82370    1.000
    H17      H        0.06970    0.18900    0.70180    1.000
    H18      H        0.75000    0.83420    0.50000    1.000
    O19      O        0.10560    0.87850    0.57250    1.000
    C20      C        0.26200    0.86920    0.60540    1.000
    C21      C        0.25970    0.80300    0.68130    1.000
    C22      C        0.42840    0.78340    0.72220    1.000
    C23      C        0.41940    0.72860    0.79180    1.000
    O24      O        0.06980    0.59800    0.91250    1.000
    H25      H        0.94540    0.79000    0.67630    1.000
    H26      H        0.93030    0.68900    0.79820    1.000
    O27      O        0.60560    0.37850    0.07250    1.000
    C28      C        0.76200    0.36920    0.10540    1.000
    C29      C        0.75970    0.30300    0.18130    1.000
    C30      C        0.92840    0.28340    0.22220    1.000
    C31      C        0.91940    0.22860    0.29180    1.000
    O32      O        0.56980    0.09800    0.41250    1.000
    H33      H        0.44540    0.29000    0.17630    1.000
    H34      H        0.43030    0.18900    0.29820    1.000
    O36      O        0.60560    0.12150    0.57250    1.000
    C37      C        0.76200    0.13080    0.60540    1.000
    C38      C        0.75970    0.19700    0.68130    1.000
    C39      C        0.92840    0.21660    0.72220    1.000
    C40      C        0.91940    0.27140    0.79180    1.000
    O41      O        0.56980    0.40200    0.91250    1.000
    H42      H        0.44540    0.21000    0.67630    1.000
    H43      H        0.43030    0.31100    0.79820    1.000
    O44      O        0.10560    0.62150    0.07250    1.000
    C45      C        0.26200    0.63080    0.10540    1.000
    C46      C        0.25970    0.69700    0.18130    1.000
    C47      C        0.42840    0.71660    0.22220    1.000
    C48      C        0.41940    0.77140    0.29180    1.000
    O49      O        0.06980    0.90200    0.41250    1.000
    H50      H        0.94540    0.71000    0.17630    1.000
    H51      H        0.93030    0.81100    0.29820    1.000
    H52      H        0.25000    0.16580    0.50000    1.000
    O53      O        0.89440    0.12150    0.42750    1.000
    C54      C        0.73800    0.13080    0.39460    1.000
    C55      C        0.74030    0.19700    0.31870    1.000
    C56      C        0.57160    0.21660    0.27780    1.000
    C57      C        0.58060    0.27140    0.20820    1.000
    O58      O        0.93020    0.40200    0.08750    1.000
    H59      H        0.05460    0.21000    0.32370    1.000
    H60      H        0.06970    0.31100    0.20180    1.000
    H61      H        0.75000    0.66580    0.00000    1.000
    O62      O        0.39440    0.62150    0.92750    1.000
    C63      C        0.23800    0.63080    0.89460    1.000
    C64      C        0.24030    0.69700    0.81870    1.000
    C65      C        0.07160    0.71660    0.77780    1.000
    C66      C        0.08060    0.77140    0.70820    1.000
    O67      O        0.43020    0.90200    0.58750    1.000
    H68      H        0.55460    0.71000    0.82370    1.000
    H69      H        0.56970    0.81100    0.70180    1.000
    Ga71     Ga       0.50000    0.00000    0.50000    1.000
    Ga72     Ga       0.00000    0.50000    0.00000    1.000
    Ga73     Ga       0.00000    0.00000    0.50000    1.000
    Ga74     Ga       0.50000    0.50000    0.00000    1.000
    O75      O        0.25000    0.07690    0.50000    1.000
    O76      O        0.75000    0.57690    0.00000    1.000
    O77      O        0.75000    0.92310    0.50000    1.000
    O78      O        0.25000    0.42310    0.00000    1.000
