# CIF file generated by openbabel 3.1.0, see https://openbabel.org
data_I
_chemical_name_common 'image0'
_cell_length_a 18.1887
_cell_length_b 11.3416
_cell_length_c 18.6835
_cell_angle_alpha 90
_cell_angle_beta 108.663
_cell_angle_gamma 90
_space_group_name_H-M_alt 'P 1'
_space_group_name_Hall 'P 1'
loop_
    _symmetry_equiv_pos_as_xyz
    x,y,z
loop_
    _atom_site_label
    _atom_site_type_symbol
    _atom_site_fract_x
    _atom_site_fract_y
    _atom_site_fract_z
    _atom_site_occupancy
    Y1       Y        0.50124    0.06707    0.39611    1.000
    O1       O        0.91140    0.42570    0.77850    1.000
    O2       O        0.42200    0.06740    0.52670    1.000
    O3       O        0.57910    0.08510    0.61230    1.000
    O4       O        0.91460    0.47020    0.66530    1.000
    O5       O        0.57480    0.16590    0.49960    1.000
    O6       O        0.40580    0.17160    0.42150    1.000
    C1       C        0.69800    0.24790    0.68920    1.000
    C2       C        0.31660    0.20170    0.48980    1.000
    C3       C        0.70630    0.29760    0.56400    1.000
    H1       H        0.68500    0.29490    0.51170    1.000
    C4       C        0.77380    0.35890    0.59600    1.000
    H2       H        0.79790    0.39810    0.56580    1.000
    C5       C        0.80630    0.36170    0.67550    1.000
    C6       C        0.28840    0.16080    0.54480    1.000
    H3       H        0.31500    0.10020    0.57590    1.000
    C7       C        0.66780    0.23730    0.60970    1.000
    C8       C        0.22230    0.20510    0.55650    1.000
    C9       C        0.38530    0.14370    0.47840    1.000
    C10      C        0.60230    0.15860    0.57100    1.000
    C11      C        0.76860    0.31600    0.71960    1.000
    H4       H        0.78820    0.32830    0.77140    1.000
    C12      C        0.88540    0.42500    0.70920    1.000
    N1       N        0.66550    0.20200    0.73840    1.000
    H5       H        0.68580    0.13300    0.75310    1.000
    H6       H        0.67360    0.24640    0.77780    1.000
    N2       N        0.19700    0.16500    0.61300    1.000
    H7       H        0.23540    0.14460    0.65400    1.000
    H8       H        0.16710    0.21560    0.62920    1.000
    Y2       Y        0.00124    0.56707    0.39611    1.000
    O7       O        0.41140    0.92570    0.77850    1.000
    O8       O        0.92200    0.56740    0.52670    1.000
    O9       O        0.07910    0.58510    0.61230    1.000
    O10      O        0.41460    0.97020    0.66530    1.000
    O11      O        0.07480    0.66590    0.49960    1.000
    O12      O        0.90580    0.67160    0.42150    1.000
    C13      C        0.19800    0.74790    0.68920    1.000
    C14      C        0.81660    0.70170    0.48980    1.000
    C15      C        0.20630    0.79760    0.56400    1.000
    H9       H        0.18500    0.79490    0.51170    1.000
    C16      C        0.27380    0.85890    0.59600    1.000
    H10      H        0.29790    0.89810    0.56580    1.000
    C17      C        0.30630    0.86170    0.67550    1.000
    C18      C        0.78840    0.66080    0.54480    1.000
    H11      H        0.81500    0.60020    0.57590    1.000
    C19      C        0.16780    0.73730    0.60970    1.000
    C20      C        0.72230    0.70510    0.55650    1.000
    C21      C        0.88530    0.64370    0.47840    1.000
    C22      C        0.10230    0.65860    0.57100    1.000
    C23      C        0.26860    0.81600    0.71960    1.000
    H12      H        0.28820    0.82830    0.77140    1.000
    C24      C        0.38540    0.92500    0.70920    1.000
    N3       N        0.16550    0.70200    0.73840    1.000
    H13      H        0.18580    0.63300    0.75310    1.000
    H14      H        0.17360    0.74640    0.77780    1.000
    N4       N        0.69700    0.66500    0.61300    1.000
    H15      H        0.73540    0.64460    0.65400    1.000
    H16      H        0.66710    0.71560    0.62920    1.000
    Y3       Y        0.49876    0.06707    0.10389    1.000
    O13      O        0.08860    0.42570    0.72150    1.000
    O14      O        0.57800    0.06740    0.97330    1.000
    O15      O        0.42090    0.08510    0.88770    1.000
    O16      O        0.08540    0.47020    0.83470    1.000
    O17      O        0.42520    0.16590    0.00040    1.000
    O18      O        0.59420    0.17160    0.07850    1.000
    C25      C        0.30200    0.24790    0.81080    1.000
    C26      C        0.68340    0.20170    0.01020    1.000
    C27      C        0.29370    0.29760    0.93600    1.000
    H17      H        0.31500    0.29490    0.98830    1.000
    C28      C        0.22620    0.35890    0.90400    1.000
    H18      H        0.20210    0.39810    0.93420    1.000
    C29      C        0.19370    0.36170    0.82450    1.000
    C30      C        0.71160    0.16080    0.95520    1.000
    H19      H        0.68500    0.10020    0.92410    1.000
    C31      C        0.33220    0.23730    0.89030    1.000
    C32      C        0.77770    0.20510    0.94350    1.000
    C33      C        0.61470    0.14370    0.02160    1.000
    C34      C        0.39770    0.15860    0.92900    1.000
    C35      C        0.23140    0.31600    0.78040    1.000
    H20      H        0.21180    0.32830    0.72860    1.000
    C36      C        0.11460    0.42500    0.79080    1.000
    N5       N        0.33450    0.20200    0.76160    1.000
    H21      H        0.31420    0.13300    0.74690    1.000
    H22      H        0.32640    0.24640    0.72220    1.000
    N6       N        0.80300    0.16500    0.88700    1.000
    H23      H        0.76460    0.14460    0.84600    1.000
    H24      H        0.83290    0.21560    0.87080    1.000
    Y4       Y        0.99876    0.56707    0.10389    1.000
    O19      O        0.58860    0.92570    0.72150    1.000
    O20      O        0.07800    0.56740    0.97330    1.000
    O21      O        0.92090    0.58510    0.88770    1.000
    O22      O        0.58540    0.97020    0.83470    1.000
    O23      O        0.92520    0.66590    0.00040    1.000
    O24      O        0.09420    0.67160    0.07850    1.000
    C37      C        0.80200    0.74790    0.81080    1.000
    C38      C        0.18340    0.70170    0.01020    1.000
    C39      C        0.79370    0.79760    0.93600    1.000
    H25      H        0.81500    0.79490    0.98830    1.000
    C40      C        0.72620    0.85890    0.90400    1.000
    H26      H        0.70210    0.89810    0.93420    1.000
    C41      C        0.69370    0.86170    0.82450    1.000
    C42      C        0.21160    0.66080    0.95520    1.000
    H27      H        0.18500    0.60020    0.92410    1.000
    C43      C        0.83220    0.73730    0.89030    1.000
    C44      C        0.27770    0.70510    0.94350    1.000
    C45      C        0.11470    0.64370    0.02160    1.000
    C46      C        0.89770    0.65860    0.92900    1.000
    C47      C        0.73140    0.81600    0.78040    1.000
    H28      H        0.71180    0.82830    0.72860    1.000
    C48      C        0.61460    0.92500    0.79080    1.000
    N7       N        0.83450    0.70200    0.76160    1.000
    H29      H        0.81420    0.63300    0.74690    1.000
    H30      H        0.82640    0.74640    0.72220    1.000
    N8       N        0.30300    0.66500    0.88700    1.000
    H31      H        0.26460    0.64460    0.84600    1.000
    H32      H        0.33290    0.71560    0.87080    1.000
    Y5       Y        0.49876    0.93293    0.60389    1.000
    O25      O        0.08860    0.57430    0.22150    1.000
    O26      O        0.57800    0.93260    0.47330    1.000
    O27      O        0.42090    0.91490    0.38770    1.000
    O28      O        0.08540    0.52980    0.33470    1.000
    O29      O        0.42520    0.83410    0.50040    1.000
    O30      O        0.59420    0.82840    0.57850    1.000
    C49      C        0.30200    0.75210    0.31080    1.000
    C50      C        0.68340    0.79830    0.51020    1.000
    C51      C        0.29370    0.70240    0.43600    1.000
    H33      H        0.31500    0.70510    0.48830    1.000
    C52      C        0.22620    0.64110    0.40400    1.000
    H34      H        0.20210    0.60190    0.43420    1.000
    C53      C        0.19370    0.63830    0.32450    1.000
    C54      C        0.71160    0.83920    0.45520    1.000
    H35      H        0.68500    0.89980    0.42410    1.000
    C55      C        0.33220    0.76270    0.39030    1.000
    C56      C        0.77770    0.79490    0.44350    1.000
    C57      C        0.61470    0.85630    0.52160    1.000
    C58      C        0.39770    0.84140    0.42900    1.000
    C59      C        0.23140    0.68400    0.28040    1.000
    H36      H        0.21180    0.67170    0.22860    1.000
    C60      C        0.11460    0.57500    0.29080    1.000
    N9       N        0.33450    0.79800    0.26160    1.000
    H37      H        0.31420    0.86700    0.24690    1.000
    H38      H        0.32640    0.75360    0.22220    1.000
    N10      N        0.80300    0.83500    0.38700    1.000
    H39      H        0.76460    0.85540    0.34600    1.000
    H40      H        0.83290    0.78440    0.37080    1.000
    Y6       Y        0.99876    0.43293    0.60389    1.000
    O31      O        0.58860    0.07430    0.22150    1.000
    O32      O        0.07800    0.43260    0.47330    1.000
    O33      O        0.92090    0.41490    0.38770    1.000
    O34      O        0.58540    0.02980    0.33470    1.000
    O35      O        0.92520    0.33410    0.50040    1.000
    O36      O        0.09420    0.32840    0.57850    1.000
    C61      C        0.80200    0.25210    0.31080    1.000
    C62      C        0.18340    0.29830    0.51020    1.000
    C63      C        0.79370    0.20240    0.43600    1.000
    H41      H        0.81500    0.20510    0.48830    1.000
    C64      C        0.72620    0.14110    0.40400    1.000
    H42      H        0.70210    0.10190    0.43420    1.000
    C65      C        0.69370    0.13830    0.32450    1.000
    C66      C        0.21160    0.33920    0.45520    1.000
    H43      H        0.18500    0.39980    0.42410    1.000
    C67      C        0.83220    0.26270    0.39030    1.000
    C68      C        0.27770    0.29490    0.44350    1.000
    C69      C        0.11470    0.35630    0.52160    1.000
    C70      C        0.89770    0.34140    0.42900    1.000
    C71      C        0.73140    0.18400    0.28040    1.000
    H44      H        0.71180    0.17170    0.22860    1.000
    C72      C        0.61460    0.07500    0.29080    1.000
    N11      N        0.83450    0.29800    0.26160    1.000
    H45      H        0.81420    0.36700    0.24690    1.000
    H46      H        0.82640    0.25360    0.22220    1.000
    N12      N        0.30300    0.33500    0.38700    1.000
    H47      H        0.26460    0.35540    0.34600    1.000
    H48      H        0.33290    0.28440    0.37080    1.000
    Y7       Y        0.50124    0.93293    0.89611    1.000
    O37      O        0.91140    0.57430    0.27850    1.000
    O38      O        0.42200    0.93260    0.02670    1.000
    O39      O        0.57910    0.91490    0.11230    1.000
    O40      O        0.91460    0.52980    0.16530    1.000
    O41      O        0.57480    0.83410    0.99960    1.000
    O42      O        0.40580    0.82840    0.92150    1.000
    C73      C        0.69800    0.75210    0.18920    1.000
    C74      C        0.31660    0.79830    0.98980    1.000
    C75      C        0.70630    0.70240    0.06400    1.000
    H49      H        0.68500    0.70510    0.01170    1.000
    C76      C        0.77380    0.64110    0.09600    1.000
    H50      H        0.79790    0.60190    0.06580    1.000
    C77      C        0.80630    0.63830    0.17550    1.000
    C78      C        0.28840    0.83920    0.04480    1.000
    H51      H        0.31500    0.89980    0.07590    1.000
    C79      C        0.66780    0.76270    0.10970    1.000
    C80      C        0.22230    0.79490    0.05650    1.000
    C81      C        0.38530    0.85630    0.97840    1.000
    C82      C        0.60230    0.84140    0.07100    1.000
    C83      C        0.76860    0.68400    0.21960    1.000
    H52      H        0.78820    0.67170    0.27140    1.000
    C84      C        0.88540    0.57500    0.20920    1.000
    N13      N        0.66550    0.79800    0.23840    1.000
    H53      H        0.68580    0.86700    0.25310    1.000
    H54      H        0.67360    0.75360    0.27780    1.000
    N14      N        0.19700    0.83500    0.11300    1.000
    H55      H        0.23540    0.85540    0.15400    1.000
    H56      H        0.16710    0.78440    0.12920    1.000
    Y8       Y        0.00124    0.43293    0.89611    1.000
    O43      O        0.41140    0.07430    0.27850    1.000
    O44      O        0.92200    0.43260    0.02670    1.000
    O45      O        0.07910    0.41490    0.11230    1.000
    O46      O        0.41460    0.02980    0.16530    1.000
    O47      O        0.07480    0.33410    0.99960    1.000
    O48      O        0.90580    0.32840    0.92150    1.000
    C85      C        0.19800    0.25210    0.18920    1.000
    C86      C        0.81660    0.29830    0.98980    1.000
    C87      C        0.20630    0.20240    0.06400    1.000
    H57      H        0.18500    0.20510    0.01170    1.000
    C88      C        0.27380    0.14110    0.09600    1.000
    H58      H        0.29790    0.10190    0.06580    1.000
    C89      C        0.30630    0.13830    0.17550    1.000
    C90      C        0.78840    0.33920    0.04480    1.000
    H59      H        0.81500    0.39980    0.07590    1.000
    C91      C        0.16780    0.26270    0.10970    1.000
    C92      C        0.72230    0.29490    0.05650    1.000
    C93      C        0.88530    0.35630    0.97840    1.000
    C94      C        0.10230    0.34140    0.07100    1.000
    C95      C        0.26860    0.18400    0.21960    1.000
    H60      H        0.28820    0.17170    0.27140    1.000
    C96      C        0.38540    0.07500    0.20920    1.000
    N15      N        0.16550    0.29800    0.23840    1.000
    H61      H        0.18580    0.36700    0.25310    1.000
    H62      H        0.17360    0.25360    0.27780    1.000
    N16      N        0.69700    0.33500    0.11300    1.000
    H63      H        0.73540    0.35540    0.15400    1.000
    H64      H        0.66710    0.28440    0.12920    1.000
