# CIF file generated by openbabel 3.1.0, see https://openbabel.org
data_I
_chemical_name_common 'image0'
_cell_length_a 11.0763
_cell_length_b 11.0763
_cell_length_c 27.4307
_cell_angle_alpha 90
_cell_angle_beta 90
_cell_angle_gamma 90
_space_group_name_H-M_alt 'P 1'
_space_group_name_Hall 'P 1'
loop_
    _symmetry_equiv_pos_as_xyz
    x,y,z
loop_
    _atom_site_label
    _atom_site_type_symbol
    _atom_site_fract_x
    _atom_site_fract_y
    _atom_site_fract_z
    _atom_site_occupancy
    N1       N        0.53390    0.50280    0.92688    1.000
    N2       N        0.59350    0.70630    0.91961    1.000
    N3       N        0.53510    0.48460    0.82564    1.000
    C1       C        0.51220    0.39680    0.90407    1.000
    H1       H        0.49590    0.32700    0.92310    1.000
    C2       C        0.51290    0.38720    0.85424    1.000
    H2       H        0.49770    0.31110    0.83950    1.000
    C3       C        0.55850    0.58840    0.84807    1.000
    H3       H        0.57380    0.65830    0.82900    1.000
    C4       C        0.56140    0.59800    0.89911    1.000
    C5       C        0.66220    0.72080    0.96204    1.000
    C6       C        0.74770    0.81230    0.96293    1.000
    H4       H        0.86750    0.75170    0.06350    1.000
    N4       N        0.46610    0.49720    0.42688    1.000
    N5       N        0.40650    0.29370    0.41961    1.000
    N6       N        0.46490    0.51540    0.32564    1.000
    C7       C        0.48780    0.60320    0.40407    1.000
    H5       H        0.50410    0.67300    0.42310    1.000
    C8       C        0.48710    0.61280    0.35424    1.000
    H6       H        0.50230    0.68890    0.33950    1.000
    C9       C        0.44150    0.41160    0.34807    1.000
    H7       H        0.42620    0.34170    0.32900    1.000
    C10      C        0.43860    0.40200    0.39911    1.000
    C11      C        0.33780    0.27920    0.46204    1.000
    C12      C        0.25230    0.18770    0.46293    1.000
    H8       H        0.13250    0.24830    0.56350    1.000
    N7       N        0.50280    0.53390    0.07312    1.000
    N8       N        0.70630    0.59350    0.08039    1.000
    N9       N        0.48460    0.53510    0.17436    1.000
    C13      C        0.39680    0.51220    0.09593    1.000
    H9       H        0.32700    0.49590    0.07690    1.000
    C14      C        0.38720    0.51290    0.14576    1.000
    H10      H        0.31110    0.49770    0.16050    1.000
    C15      C        0.58840    0.55850    0.15193    1.000
    H11      H        0.65830    0.57380    0.17100    1.000
    C16      C        0.59800    0.56140    0.10089    1.000
    C17      C        0.72080    0.66220    0.03796    1.000
    C18      C        0.81230    0.74770    0.03707    1.000
    H12      H        0.75170    0.86750    0.93650    1.000
    N10      N        0.49720    0.46610    0.57312    1.000
    N11      N        0.29370    0.40650    0.58039    1.000
    N12      N        0.51540    0.46490    0.67436    1.000
    C19      C        0.60320    0.48780    0.59593    1.000
    H13      H        0.67300    0.50410    0.57690    1.000
    C20      C        0.61280    0.48710    0.64576    1.000
    H14      H        0.68890    0.50230    0.66050    1.000
    C21      C        0.41160    0.44150    0.65193    1.000
    H15      H        0.34170    0.42620    0.67100    1.000
    C22      C        0.40200    0.43860    0.60089    1.000
    C23      C        0.27920    0.33780    0.53796    1.000
    C24      C        0.18770    0.25230    0.53707    1.000
    H16      H        0.24830    0.13250    0.43650    1.000
    Cu1      Cu       0.51609    0.51609    0.00000    1.000
    N13      N        0.64600    0.64600    0.00000    1.000
    N14      N        0.82450    0.82450    0.00000    1.000
    Cu2      Cu       0.48391    0.48391    0.50000    1.000
    N15      N        0.35400    0.35400    0.50000    1.000
    N16      N        0.17550    0.17550    0.50000    1.000
    Ni1      Ni       0.52836    0.47164    0.75000    1.000
    Ni2      Ni       0.47164    0.52836    0.25000    1.000
    N17      N        0.99720    0.03390    0.67688    1.000
    N18      N        0.79370    0.09350    0.66961    1.000
    N19      N        0.01540    0.03510    0.57564    1.000
    C25      C        0.10320    0.01220    0.65407    1.000
    H17      H        0.17300    0.99590    0.67310    1.000
    C26      C        0.11280    0.01290    0.60424    1.000
    H18      H        0.18890    0.99770    0.58950    1.000
    C27      C        0.91160    0.05850    0.59807    1.000
    H19      H        0.84170    0.07380    0.57900    1.000
    C28      C        0.90200    0.06140    0.64911    1.000
    C29      C        0.77920    0.16220    0.71204    1.000
    C30      C        0.68770    0.24770    0.71293    1.000
    H20      H        0.74830    0.36750    0.81350    1.000
    N20      N        0.00280    0.96610    0.17688    1.000
    N21      N        0.20630    0.90650    0.16961    1.000
    N22      N        0.98460    0.96490    0.07564    1.000
    C31      C        0.89680    0.98780    0.15407    1.000
    H21      H        0.82700    0.00410    0.17310    1.000
    C32      C        0.88720    0.98710    0.10424    1.000
    H22      H        0.81110    0.00230    0.08950    1.000
    C33      C        0.08840    0.94150    0.09807    1.000
    H23      H        0.15830    0.92620    0.07900    1.000
    C34      C        0.09800    0.93860    0.14911    1.000
    C35      C        0.22080    0.83780    0.21204    1.000
    C36      C        0.31230    0.75230    0.21293    1.000
    H24      H        0.25170    0.63250    0.31350    1.000
    N23      N        0.96610    0.00280    0.82312    1.000
    N24      N        0.90650    0.20630    0.83039    1.000
    N25      N        0.96490    0.98460    0.92436    1.000
    C37      C        0.98780    0.89680    0.84593    1.000
    H25      H        0.00410    0.82700    0.82690    1.000
    C38      C        0.98710    0.88720    0.89576    1.000
    H26      H        0.00230    0.81110    0.91050    1.000
    C39      C        0.94150    0.08840    0.90193    1.000
    H27      H        0.92620    0.15830    0.92100    1.000
    C40      C        0.93860    0.09800    0.85089    1.000
    C41      C        0.83780    0.22080    0.78796    1.000
    C42      C        0.75230    0.31230    0.78707    1.000
    H28      H        0.63250    0.25170    0.68650    1.000
    N26      N        0.03390    0.99720    0.32312    1.000
    N27      N        0.09350    0.79370    0.33039    1.000
    N28      N        0.03510    0.01540    0.42436    1.000
    C43      C        0.01220    0.10320    0.34593    1.000
    H29      H        0.99590    0.17300    0.32690    1.000
    C44      C        0.01290    0.11280    0.39576    1.000
    H30      H        0.99770    0.18890    0.41050    1.000
    C45      C        0.05850    0.91160    0.40193    1.000
    H31      H        0.07380    0.84170    0.42100    1.000
    C46      C        0.06140    0.90200    0.35089    1.000
    C47      C        0.16220    0.77920    0.28796    1.000
    C48      C        0.24770    0.68770    0.28707    1.000
    H32      H        0.36750    0.74830    0.18650    1.000
    Cu3      Cu       0.98391    0.01609    0.75000    1.000
    N29      N        0.85400    0.14600    0.75000    1.000
    N30      N        0.67550    0.32450    0.75000    1.000
    Cu4      Cu       0.01609    0.98391    0.25000    1.000
    N31      N        0.14600    0.85400    0.25000    1.000
    N32      N        0.32450    0.67550    0.25000    1.000
    Ni3      Ni       0.02836    0.02836    0.50000    1.000
    Ni4      Ni       0.97164    0.97164    0.00000    1.000
