# CIF file generated by openbabel 3.1.0, see https://openbabel.org
data_I
_chemical_name_common 'image0'
_cell_length_a 25.8582
_cell_length_b 25.8582
_cell_length_c 6.2615
_cell_angle_alpha 90
_cell_angle_beta 90
_cell_angle_gamma 120
_space_group_name_H-M_alt 'P 1'
_space_group_name_Hall 'P 1'
loop_
    _symmetry_equiv_pos_as_xyz
    x,y,z
loop_
    _atom_site_label
    _atom_site_type_symbol
    _atom_site_fract_x
    _atom_site_fract_y
    _atom_site_fract_z
    _atom_site_occupancy
    Cu1      Cu       0.38651    0.34907    0.17610    1.000
    O1       O        0.35441    0.30306    0.43350    1.000
    O2       O        0.29217    0.22400    0.62870    1.000
    O3       O        0.36050    0.27702    0.00780    1.000
    C1       C        0.32463    0.24784    0.46570    1.000
    C2       C        0.32769    0.20621    0.29900    1.000
    C3       C        0.34813    0.22473    0.09280    1.000
    C4       C        0.35412    0.18405    0.95690    1.000
    H1       H        0.36720    0.19550    0.80160    1.000
    Cu2      Cu       0.05318    0.68240    0.50943    1.000
    O4       O        0.02108    0.63639    0.76683    1.000
    O5       O        0.95884    0.55733    0.96203    1.000
    O6       O        0.02717    0.61035    0.34113    1.000
    C5       C        0.99130    0.58117    0.79903    1.000
    C6       C        0.99436    0.53954    0.63233    1.000
    C7       C        0.01480    0.55806    0.42613    1.000
    C8       C        0.02079    0.51738    0.29023    1.000
    H2       H        0.03387    0.52883    0.13493    1.000
    Cu3      Cu       0.71984    0.01574    0.84277    1.000
    O7       O        0.68774    0.96973    0.10017    1.000
    O8       O        0.62550    0.89067    0.29537    1.000
    O9       O        0.69383    0.94369    0.67447    1.000
    C9       C        0.65796    0.91451    0.13237    1.000
    C10      C        0.66102    0.87288    0.96567    1.000
    C11      C        0.68146    0.89140    0.75947    1.000
    C12      C        0.68745    0.85072    0.62357    1.000
    H3       H        0.70053    0.86217    0.46827    1.000
    Cu4      Cu       0.65093    0.03744    0.17610    1.000
    O10      O        0.69694    0.05135    0.43350    1.000
    O11      O        0.77600    0.06817    0.62870    1.000
    O12      O        0.72298    0.08348    0.00780    1.000
    C13      C        0.75216    0.07679    0.46570    1.000
    C14      C        0.79379    0.12148    0.29900    1.000
    C15      C        0.77527    0.12340    0.09280    1.000
    C16      C        0.81595    0.17007    0.95690    1.000
    H4       H        0.80450    0.17170    0.80160    1.000
    Cu5      Cu       0.31760    0.37077    0.50943    1.000
    O13      O        0.36361    0.38468    0.76683    1.000
    O14      O        0.44267    0.40150    0.96203    1.000
    O15      O        0.38965    0.41681    0.34113    1.000
    C17      C        0.41883    0.41012    0.79903    1.000
    C18      C        0.46046    0.45481    0.63233    1.000
    C19      C        0.44194    0.45673    0.42613    1.000
    C20      C        0.48262    0.50340    0.29023    1.000
    H5       H        0.47117    0.50503    0.13493    1.000
    Cu6      Cu       0.98426    0.70411    0.84277    1.000
    O16      O        0.03027    0.71802    0.10017    1.000
    O17      O        0.10933    0.73484    0.29537    1.000
    O18      O        0.05631    0.75015    0.67447    1.000
    C21      C        0.08549    0.74346    0.13237    1.000
    C22      C        0.12712    0.78815    0.96567    1.000
    C23      C        0.10860    0.79007    0.75947    1.000
    C24      C        0.14928    0.83674    0.62357    1.000
    H6       H        0.13783    0.83837    0.46827    1.000
    Cu7      Cu       0.96256    0.61349    0.17610    1.000
    O19      O        0.94865    0.64559    0.43350    1.000
    O20      O        0.93183    0.70783    0.62870    1.000
    O21      O        0.91652    0.63950    0.00780    1.000
    C25      C        0.92321    0.67537    0.46570    1.000
    C26      C        0.87852    0.67231    0.29900    1.000
    C27      C        0.87660    0.65187    0.09280    1.000
    C28      C        0.82993    0.64588    0.95690    1.000
    H7       H        0.82830    0.63280    0.80160    1.000
    Cu8      Cu       0.62923    0.94682    0.50943    1.000
    O22      O        0.61532    0.97892    0.76683    1.000
    O23      O        0.59850    0.04116    0.96203    1.000
    O24      O        0.58319    0.97283    0.34113    1.000
    C29      C        0.58988    0.00870    0.79903    1.000
    C30      C        0.54519    0.00564    0.63233    1.000
    C31      C        0.54327    0.98520    0.42613    1.000
    C32      C        0.49660    0.97921    0.29023    1.000
    H8       H        0.49497    0.96613    0.13493    1.000
    Cu9      Cu       0.29589    0.28016    0.84277    1.000
    O25      O        0.28198    0.31226    0.10017    1.000
    O26      O        0.26516    0.37450    0.29537    1.000
    O27      O        0.24985    0.30617    0.67447    1.000
    C33      C        0.25654    0.34204    0.13237    1.000
    C34      C        0.21185    0.33898    0.96567    1.000
    C35      C        0.20993    0.31854    0.75947    1.000
    C36      C        0.16326    0.31255    0.62357    1.000
    H9       H        0.16163    0.29947    0.46827    1.000
    Cu10     Cu       0.61349    0.65093    0.82390    1.000
    O28      O        0.64559    0.69694    0.56650    1.000
    O29      O        0.70783    0.77600    0.37130    1.000
    O30      O        0.63950    0.72298    0.99220    1.000
    C37      C        0.67537    0.75216    0.53430    1.000
    C38      C        0.67231    0.79379    0.70100    1.000
    C39      C        0.65187    0.77527    0.90720    1.000
    C40      C        0.64588    0.81595    0.04310    1.000
    H10      H        0.63280    0.80450    0.19840    1.000
    Cu11     Cu       0.28016    0.98426    0.15723    1.000
    O31      O        0.31226    0.03027    0.89983    1.000
    O32      O        0.37450    0.10933    0.70463    1.000
    O33      O        0.30617    0.05631    0.32553    1.000
    C41      C        0.34204    0.08549    0.86763    1.000
    C42      C        0.33898    0.12712    0.03433    1.000
    C43      C        0.31854    0.10860    0.24053    1.000
    C44      C        0.31255    0.14928    0.37643    1.000
    H11      H        0.29947    0.13783    0.53173    1.000
    Cu12     Cu       0.94682    0.31760    0.49057    1.000
    O34      O        0.97892    0.36361    0.23317    1.000
    O35      O        0.04116    0.44267    0.03797    1.000
    O36      O        0.97283    0.38965    0.65887    1.000
    C45      C        0.00870    0.41883    0.20097    1.000
    C46      C        0.00564    0.46046    0.36767    1.000
    C47      C        0.98520    0.44194    0.57387    1.000
    C48      C        0.97921    0.48262    0.70977    1.000
    H12      H        0.96613    0.47117    0.86507    1.000
    Cu13     Cu       0.34907    0.96256    0.82390    1.000
    O37      O        0.30306    0.94865    0.56650    1.000
    O38      O        0.22400    0.93183    0.37130    1.000
    O39      O        0.27702    0.91652    0.99220    1.000
    C49      C        0.24784    0.92321    0.53430    1.000
    C50      C        0.20621    0.87852    0.70100    1.000
    C51      C        0.22473    0.87660    0.90720    1.000
    C52      C        0.18405    0.82993    0.04310    1.000
    H13      H        0.19550    0.82830    0.19840    1.000
    Cu14     Cu       0.01574    0.29589    0.15723    1.000
    O40      O        0.96973    0.28198    0.89983    1.000
    O41      O        0.89067    0.26516    0.70463    1.000
    O42      O        0.94369    0.24985    0.32553    1.000
    C53      C        0.91451    0.25654    0.86763    1.000
    C54      C        0.87288    0.21185    0.03433    1.000
    C55      C        0.89140    0.20993    0.24053    1.000
    C56      C        0.85072    0.16326    0.37643    1.000
    H14      H        0.86217    0.16163    0.53173    1.000
    Cu15     Cu       0.68240    0.62923    0.49057    1.000
    O43      O        0.63639    0.61532    0.23317    1.000
    O44      O        0.55733    0.59850    0.03797    1.000
    O45      O        0.61035    0.58319    0.65887    1.000
    C57      C        0.58117    0.58988    0.20097    1.000
    C58      C        0.53954    0.54519    0.36767    1.000
    C59      C        0.55806    0.54327    0.57387    1.000
    C60      C        0.51738    0.49660    0.70977    1.000
    H15      H        0.52883    0.49497    0.86507    1.000
    Cu16     Cu       0.03744    0.38651    0.82390    1.000
    O46      O        0.05135    0.35441    0.56650    1.000
    O47      O        0.06817    0.29217    0.37130    1.000
    O48      O        0.08348    0.36050    0.99220    1.000
    C61      C        0.07679    0.32463    0.53430    1.000
    C62      C        0.12148    0.32769    0.70100    1.000
    C63      C        0.12340    0.34813    0.90720    1.000
    C64      C        0.17007    0.35412    0.04310    1.000
    H16      H        0.17170    0.36720    0.19840    1.000
    Cu17     Cu       0.70411    0.71984    0.15723    1.000
    O49      O        0.71802    0.68774    0.89983    1.000
    O50      O        0.73484    0.62550    0.70463    1.000
    O51      O        0.75015    0.69383    0.32553    1.000
    C65      C        0.74346    0.65796    0.86763    1.000
    C66      C        0.78815    0.66102    0.03433    1.000
    C67      C        0.79007    0.68146    0.24053    1.000
    C68      C        0.83674    0.68745    0.37643    1.000
    H17      H        0.83837    0.70053    0.53173    1.000
    Cu18     Cu       0.37077    0.05318    0.49057    1.000
    O52      O        0.38468    0.02108    0.23317    1.000
    O53      O        0.40150    0.95884    0.03797    1.000
    O54      O        0.41681    0.02717    0.65887    1.000
    C69      C        0.41012    0.99130    0.20097    1.000
    C70      C        0.45481    0.99436    0.36767    1.000
    C71      C        0.45673    0.01480    0.57387    1.000
    C72      C        0.50340    0.02079    0.70977    1.000
    H18      H        0.50503    0.03387    0.86507    1.000
