# CIF file generated by openbabel 3.1.0, see https://openbabel.org
data_I
_chemical_name_common 'image0'
_cell_length_a 6.591
_cell_length_b 11.078
_cell_length_c 15.408
_cell_angle_alpha 90
_cell_angle_beta 90
_cell_angle_gamma 90
_space_group_name_H-M_alt 'P 1'
_space_group_name_Hall 'P 1'
loop_
    _symmetry_equiv_pos_as_xyz
    x,y,z
loop_
    _atom_site_label
    _atom_site_type_symbol
    _atom_site_fract_x
    _atom_site_fract_y
    _atom_site_fract_z
    _atom_site_occupancy
    Cu1      Cu       0.75000    0.72601    0.99264    1.000
    O1       O        0.00920    0.75200    0.93880    1.000
    H1       H        0.01830    0.75410    0.87860    1.000
    N1       N        0.10530    0.68810    0.10520    1.000
    N2       N        0.90070    0.66690    0.09830    1.000
    N3       N        0.99630    0.62110    0.22900    1.000
    N4       N        0.87780    0.45830    0.43190    1.000
    C1       C        0.84100    0.62670    0.17340    1.000
    H2       H        0.70840    0.60490    0.18660    1.000
    C2       C        0.15980    0.66220    0.18430    1.000
    H3       H        0.29010    0.67050    0.20660    1.000
    C3       C        0.99050    0.58980    0.32070    1.000
    C4       C        0.10400    0.65640    0.37800    1.000
    H4       H        0.18140    0.72170    0.35940    1.000
    C5       C        0.10000    0.62300    0.46310    1.000
    H5       H        0.16890    0.66780    0.50470    1.000
    C6       C        0.98900    0.52030    0.48680    1.000
    H6       H        0.99530    0.49460    0.54420    1.000
    C7       C        0.88190    0.49260    0.34840    1.000
    H7       H        0.80790    0.44850    0.30800    1.000
    Cu2      Cu       0.25000    0.77399    0.00736    1.000
    O2       O        0.50920    0.74800    0.06120    1.000
    H8       H        0.51830    0.74590    0.12140    1.000
    N5       N        0.60530    0.81190    0.89480    1.000
    N6       N        0.40070    0.83310    0.90170    1.000
    N7       N        0.49630    0.87890    0.77100    1.000
    N8       N        0.37780    0.04170    0.56810    1.000
    C8       C        0.34100    0.87330    0.82660    1.000
    H9       H        0.20840    0.89510    0.81340    1.000
    C9       C        0.65980    0.83780    0.81570    1.000
    H10      H        0.79010    0.82950    0.79340    1.000
    C10      C        0.49050    0.91020    0.67930    1.000
    C11      C        0.60400    0.84360    0.62200    1.000
    H11      H        0.68140    0.77830    0.64060    1.000
    C12      C        0.60000    0.87700    0.53690    1.000
    H12      H        0.66890    0.83220    0.49530    1.000
    C13      C        0.48900    0.97970    0.51320    1.000
    H13      H        0.49530    0.00540    0.45580    1.000
    C14      C        0.38190    0.00740    0.65160    1.000
    H14      H        0.30790    0.05150    0.69200    1.000
    Cu3      Cu       0.75000    0.27399    0.49264    1.000
    O3       O        0.49080    0.24800    0.43880    1.000
    H15      H        0.48170    0.24590    0.37860    1.000
    N9       N        0.39470    0.31190    0.60520    1.000
    N10      N        0.59930    0.33310    0.59830    1.000
    N11      N        0.50370    0.37890    0.72900    1.000
    N12      N        0.62220    0.54170    0.93190    1.000
    C15      C        0.65900    0.37330    0.67340    1.000
    H16      H        0.79160    0.39510    0.68660    1.000
    C16      C        0.34020    0.33780    0.68430    1.000
    H17      H        0.20990    0.32950    0.70660    1.000
    C17      C        0.50950    0.41020    0.82070    1.000
    C18      C        0.39600    0.34360    0.87800    1.000
    H18      H        0.31860    0.27830    0.85940    1.000
    C19      C        0.40000    0.37700    0.96310    1.000
    H19      H        0.33110    0.33220    0.00470    1.000
    C20      C        0.51100    0.47970    0.98680    1.000
    H20      H        0.50470    0.50540    0.04420    1.000
    C21      C        0.61810    0.50740    0.84840    1.000
    H21      H        0.69210    0.55150    0.80800    1.000
    Cu4      Cu       0.25000    0.22601    0.50736    1.000
    O4       O        0.99080    0.25200    0.56120    1.000
    H22      H        0.98170    0.25410    0.62140    1.000
    N13      N        0.89470    0.18810    0.39480    1.000
    N14      N        0.09930    0.16690    0.40170    1.000
    N15      N        0.00370    0.12110    0.27100    1.000
    N16      N        0.12220    0.95830    0.06810    1.000
    C22      C        0.15900    0.12670    0.32660    1.000
    H23      H        0.29160    0.10490    0.31340    1.000
    C23      C        0.84020    0.16220    0.31570    1.000
    H24      H        0.70990    0.17050    0.29340    1.000
    C24      C        0.00950    0.08980    0.17930    1.000
    C25      C        0.89600    0.15640    0.12200    1.000
    H25      H        0.81860    0.22170    0.14060    1.000
    C26      C        0.90000    0.12300    0.03690    1.000
    H26      H        0.83110    0.16780    0.99530    1.000
    C27      C        0.01100    0.02030    0.01320    1.000
    H27      H        0.00470    0.99460    0.95580    1.000
    C28      C        0.11810    0.99260    0.15160    1.000
    H28      H        0.19210    0.94850    0.19200    1.000
