# CIF file generated by openbabel 3.1.0, see https://openbabel.org
data_I
_chemical_name_common 'image0'
_cell_length_a 8.6868
_cell_length_b 17.428
_cell_length_c 9.1589
_cell_angle_alpha 90
_cell_angle_beta 109.604
_cell_angle_gamma 90
_space_group_name_H-M_alt 'P 1'
_space_group_name_Hall 'P 1'
loop_
    _symmetry_equiv_pos_as_xyz
    x,y,z
loop_
    _atom_site_label
    _atom_site_type_symbol
    _atom_site_fract_x
    _atom_site_fract_y
    _atom_site_fract_z
    _atom_site_occupancy
    H1       H        0.55000    0.78800    0.89800    1.000
    P1       P        0.20373    0.78832    0.02722    1.000
    P2       P        0.34018    0.07040    0.86820    1.000
    P3       P        0.25208    0.83769    0.49490    1.000
    Al1      Al       0.49030    0.83114    0.31030    1.000
    Al2      Al       0.36173    0.88868    0.83616    1.000
    Al3      Al       0.43534    0.70402    0.70270    1.000
    O1       O        0.28060    0.98819    0.84000    1.000
    O2       O        0.36470    0.77330    0.16210    1.000
    O3       O        0.16430    0.71637    0.92550    1.000
    O4       O        0.06710    0.80550    0.08930    1.000
    O5       O        0.19010    0.12110    0.81950    1.000
    O6       O        0.44680    0.08890    0.76800    1.000
    O7       O        0.26670    0.89074    0.63020    1.000
    O8       O        0.27330    0.75376    0.54470    1.000
    O9       O        0.45800    0.79010    0.82120    1.000
    O10      O        0.08510    0.84904    0.37220    1.000
    O11      O        0.22590    0.85620    0.93190    1.000
    O12      O        0.44060    0.08320    0.03760    1.000
    O13      O        0.38270    0.86280    0.42680    1.000
    H2       H        0.95000    0.28800    0.60200    1.000
    P4       P        0.29627    0.28832    0.47278    1.000
    P5       P        0.15982    0.57040    0.63180    1.000
    P6       P        0.24792    0.33769    0.00510    1.000
    Al4      Al       0.00970    0.33114    0.18970    1.000
    Al5      Al       0.13827    0.38868    0.66384    1.000
    Al6      Al       0.06466    0.20402    0.79730    1.000
    O14      O        0.21940    0.48819    0.66000    1.000
    O15      O        0.13530    0.27330    0.33790    1.000
    O16      O        0.33570    0.21637    0.57450    1.000
    O17      O        0.43290    0.30550    0.41070    1.000
    O18      O        0.30990    0.62110    0.68050    1.000
    O19      O        0.05320    0.58890    0.73200    1.000
    O20      O        0.23330    0.39074    0.86980    1.000
    O21      O        0.22670    0.25376    0.95530    1.000
    O22      O        0.04200    0.29010    0.67880    1.000
    O23      O        0.41490    0.34904    0.12780    1.000
    O24      O        0.27410    0.35620    0.56810    1.000
    O25      O        0.05940    0.58320    0.46240    1.000
    O26      O        0.11730    0.36280    0.07320    1.000
    H3       H        0.45000    0.21200    0.10200    1.000
    P7       P        0.79627    0.21168    0.97278    1.000
    P8       P        0.65982    0.92960    0.13180    1.000
    P9       P        0.74792    0.16231    0.50510    1.000
    Al7      Al       0.50970    0.16886    0.68970    1.000
    Al8      Al       0.63827    0.11132    0.16384    1.000
    Al9      Al       0.56466    0.29598    0.29730    1.000
    O27      O        0.71940    0.01181    0.16000    1.000
    O28      O        0.63530    0.22670    0.83790    1.000
    O29      O        0.83570    0.28363    0.07450    1.000
    O30      O        0.93290    0.19450    0.91070    1.000
    O31      O        0.80990    0.87890    0.18050    1.000
    O32      O        0.55320    0.91110    0.23200    1.000
    O33      O        0.73330    0.10926    0.36980    1.000
    O34      O        0.72670    0.24624    0.45530    1.000
    O35      O        0.54200    0.20990    0.17880    1.000
    O36      O        0.91490    0.15096    0.62780    1.000
    O37      O        0.77410    0.14380    0.06810    1.000
    O38      O        0.55940    0.91680    0.96240    1.000
    O39      O        0.61730    0.13720    0.57320    1.000
    H4       H        0.05000    0.71200    0.39800    1.000
    P10      P        0.70373    0.71168    0.52722    1.000
    P11      P        0.84018    0.42960    0.36820    1.000
    P12      P        0.75208    0.66231    0.99490    1.000
    Al10     Al       0.99030    0.66886    0.81030    1.000
    Al11     Al       0.86173    0.61132    0.33616    1.000
    Al12     Al       0.93534    0.79598    0.20270    1.000
    O40      O        0.78060    0.51181    0.34000    1.000
    O41      O        0.86470    0.72670    0.66210    1.000
    O42      O        0.66430    0.78363    0.42550    1.000
    O43      O        0.56710    0.69450    0.58930    1.000
    O44      O        0.69010    0.37890    0.31950    1.000
    O45      O        0.94680    0.41110    0.26800    1.000
    O46      O        0.76670    0.60926    0.13020    1.000
    O47      O        0.77330    0.74624    0.04470    1.000
    O48      O        0.95800    0.70990    0.32120    1.000
    O49      O        0.58510    0.65096    0.87220    1.000
    O50      O        0.72590    0.64380    0.43190    1.000
    O51      O        0.94060    0.41680    0.53760    1.000
    O52      O        0.88270    0.63720    0.92680    1.000
