# CIF file generated by openbabel 3.1.0, see https://openbabel.org
data_I
_chemical_name_common 'image0'
_cell_length_a 18.587
_cell_length_b 20.07
_cell_length_c 8.7957
_cell_angle_alpha 90
_cell_angle_beta 100.611
_cell_angle_gamma 90
_space_group_name_H-M_alt 'P 1'
_space_group_name_Hall 'P 1'
loop_
    _symmetry_equiv_pos_as_xyz
    x,y,z
loop_
    _atom_site_label
    _atom_site_type_symbol
    _atom_site_fract_x
    _atom_site_fract_y
    _atom_site_fract_z
    _atom_site_occupancy
    N1       N        0.49810    0.83187    0.50390    1.000
    N2       N        0.41156    0.89951    0.71560    1.000
    N3       N        0.08095    0.24550    0.77340    1.000
    C1       C        0.49850    0.84730    0.38190    1.000
    C2       C        0.41750    0.95770    0.64610    1.000
    H1       H        0.45950    0.96530    0.60510    1.000
    C3       C        0.36550    0.00760    0.63100    1.000
    H2       H        0.37370    0.04800    0.58500    1.000
    C4       C        0.30250    0.99730    0.68370    1.000
    C5       C        0.29440    0.93570    0.75250    1.000
    H3       H        0.25140    0.92570    0.78750    1.000
    C6       C        0.35000    0.89030    0.76810    1.000
    H4       H        0.34420    0.85050    0.81860    1.000
    C7       C        0.24320    0.05100    0.66580    1.000
    H5       H        0.25040    0.08120    0.58390    1.000
    H6       H        0.19590    0.02980    0.63410    1.000
    C8       C        0.24180    0.08910    0.80340    1.000
    H7       H        0.28950    0.10960    0.83490    1.000
    H8       H        0.23490    0.05850    0.88480    1.000
    C9       C        0.08120    0.20390    0.65750    1.000
    H9       H        0.04610    0.20960    0.56850    1.000
    C10      C        0.13070    0.15250    0.66100    1.000
    H10      H        0.12840    0.12420    0.57630    1.000
    C11      C        0.18420    0.14320    0.79270    1.000
    C12      C        0.18280    0.18470    0.91410    1.000
    H11      H        0.21660    0.17920    0.00550    1.000
    C13      C        0.13120    0.23510    0.90190    1.000
    H12      H        0.13130    0.26290    0.98640    1.000
    N4       N        0.99810    0.33187    0.50390    1.000
    N5       N        0.91156    0.39951    0.71560    1.000
    N6       N        0.58095    0.74550    0.77340    1.000
    C14      C        0.99850    0.34730    0.38190    1.000
    C15      C        0.91750    0.45770    0.64610    1.000
    H13      H        0.95950    0.46530    0.60510    1.000
    C16      C        0.86550    0.50760    0.63100    1.000
    H14      H        0.87370    0.54800    0.58500    1.000
    C17      C        0.80250    0.49730    0.68370    1.000
    C18      C        0.79440    0.43570    0.75250    1.000
    H15      H        0.75140    0.42570    0.78750    1.000
    C19      C        0.85000    0.39030    0.76810    1.000
    H16      H        0.84420    0.35050    0.81860    1.000
    C20      C        0.74320    0.55100    0.66580    1.000
    H17      H        0.75040    0.58120    0.58390    1.000
    H18      H        0.69590    0.52980    0.63410    1.000
    C21      C        0.74180    0.58910    0.80340    1.000
    H19      H        0.78950    0.60960    0.83490    1.000
    H20      H        0.73490    0.55850    0.88480    1.000
    C22      C        0.58120    0.70390    0.65750    1.000
    H21      H        0.54610    0.70960    0.56850    1.000
    C23      C        0.63070    0.65250    0.66100    1.000
    H22      H        0.62840    0.62420    0.57630    1.000
    C24      C        0.68420    0.64320    0.79270    1.000
    C25      C        0.68280    0.68470    0.91410    1.000
    H23      H        0.71660    0.67920    0.00550    1.000
    C26      C        0.63120    0.73510    0.90190    1.000
    H24      H        0.63130    0.76290    0.98640    1.000
    N7       N        0.50190    0.83187    0.99610    1.000
    N8       N        0.58844    0.89951    0.78440    1.000
    N9       N        0.91905    0.24550    0.72660    1.000
    C27      C        0.50150    0.84730    0.11810    1.000
    C28      C        0.58250    0.95770    0.85390    1.000
    H25      H        0.54050    0.96530    0.89490    1.000
    C29      C        0.63450    0.00760    0.86900    1.000
    H26      H        0.62630    0.04800    0.91500    1.000
    C30      C        0.69750    0.99730    0.81630    1.000
    C31      C        0.70560    0.93570    0.74750    1.000
    H27      H        0.74860    0.92570    0.71250    1.000
    C32      C        0.65000    0.89030    0.73190    1.000
    H28      H        0.65580    0.85050    0.68140    1.000
    C33      C        0.75680    0.05100    0.83420    1.000
    H29      H        0.74960    0.08120    0.91610    1.000
    H30      H        0.80410    0.02980    0.86590    1.000
    C34      C        0.75820    0.08910    0.69660    1.000
    H31      H        0.71050    0.10960    0.66510    1.000
    H32      H        0.76510    0.05850    0.61520    1.000
    C35      C        0.91880    0.20390    0.84250    1.000
    H33      H        0.95390    0.20960    0.93150    1.000
    C36      C        0.86930    0.15250    0.83900    1.000
    H34      H        0.87160    0.12420    0.92370    1.000
    C37      C        0.81580    0.14320    0.70730    1.000
    C38      C        0.81720    0.18470    0.58590    1.000
    H35      H        0.78340    0.17920    0.49450    1.000
    C39      C        0.86880    0.23510    0.59810    1.000
    H36      H        0.86870    0.26290    0.51360    1.000
    N10      N        0.00190    0.33187    0.99610    1.000
    N11      N        0.08844    0.39951    0.78440    1.000
    N12      N        0.41905    0.74550    0.72660    1.000
    C40      C        0.00150    0.34730    0.11810    1.000
    C41      C        0.08250    0.45770    0.85390    1.000
    H37      H        0.04050    0.46530    0.89490    1.000
    C42      C        0.13450    0.50760    0.86900    1.000
    H38      H        0.12630    0.54800    0.91500    1.000
    C43      C        0.19750    0.49730    0.81630    1.000
    C44      C        0.20560    0.43570    0.74750    1.000
    H39      H        0.24860    0.42570    0.71250    1.000
    C45      C        0.15000    0.39030    0.73190    1.000
    H40      H        0.15580    0.35050    0.68140    1.000
    C46      C        0.25680    0.55100    0.83420    1.000
    H41      H        0.24960    0.58120    0.91610    1.000
    H42      H        0.30410    0.52980    0.86590    1.000
    C47      C        0.25820    0.58910    0.69660    1.000
    H43      H        0.21050    0.60960    0.66510    1.000
    H44      H        0.26510    0.55850    0.61520    1.000
    C48      C        0.41880    0.70390    0.84250    1.000
    H45      H        0.45390    0.70960    0.93150    1.000
    C49      C        0.36930    0.65250    0.83900    1.000
    H46      H        0.37160    0.62420    0.92370    1.000
    C50      C        0.31580    0.64320    0.70730    1.000
    C51      C        0.31720    0.68470    0.58590    1.000
    H47      H        0.28340    0.67920    0.49450    1.000
    C52      C        0.36880    0.73510    0.59810    1.000
    H48      H        0.36870    0.76290    0.51360    1.000
    Zn1      Zn       0.50000    0.82406    0.75000    1.000
    Zn2      Zn       0.00000    0.32406    0.75000    1.000
    N13      N        0.50000    0.87620    0.25000    1.000
    N14      N        0.00000    0.37620    0.25000    1.000
    N15      N        0.50190    0.16813    0.49610    1.000
    N16      N        0.58844    0.10049    0.28440    1.000
    N17      N        0.91905    0.75450    0.22660    1.000
    C53      C        0.50150    0.15270    0.61810    1.000
    C54      C        0.58250    0.04230    0.35390    1.000
    H49      H        0.54050    0.03470    0.39490    1.000
    C55      C        0.63450    0.99240    0.36900    1.000
    H50      H        0.62630    0.95200    0.41500    1.000
    C56      C        0.69750    0.00270    0.31630    1.000
    C57      C        0.70560    0.06430    0.24750    1.000
    H51      H        0.74860    0.07430    0.21250    1.000
    C58      C        0.65000    0.10970    0.23190    1.000
    H52      H        0.65580    0.14950    0.18140    1.000
    C59      C        0.75680    0.94900    0.33420    1.000
    H53      H        0.74960    0.91880    0.41610    1.000
    H54      H        0.80410    0.97020    0.36590    1.000
    C60      C        0.75820    0.91090    0.19660    1.000
    H55      H        0.71050    0.89040    0.16510    1.000
    H56      H        0.76510    0.94150    0.11520    1.000
    C61      C        0.91880    0.79610    0.34250    1.000
    H57      H        0.95390    0.79040    0.43150    1.000
    C62      C        0.86930    0.84750    0.33900    1.000
    H58      H        0.87160    0.87580    0.42370    1.000
    C63      C        0.81580    0.85680    0.20730    1.000
    C64      C        0.81720    0.81530    0.08590    1.000
    H59      H        0.78340    0.82080    0.99450    1.000
    C65      C        0.86880    0.76490    0.09810    1.000
    H60      H        0.86870    0.73710    0.01360    1.000
    N18      N        0.00190    0.66813    0.49610    1.000
    N19      N        0.08844    0.60049    0.28440    1.000
    N20      N        0.41905    0.25450    0.22660    1.000
    C66      C        0.00150    0.65270    0.61810    1.000
    C67      C        0.08250    0.54230    0.35390    1.000
    H61      H        0.04050    0.53470    0.39490    1.000
    C68      C        0.13450    0.49240    0.36900    1.000
    H62      H        0.12630    0.45200    0.41500    1.000
    C69      C        0.19750    0.50270    0.31630    1.000
    C70      C        0.20560    0.56430    0.24750    1.000
    H63      H        0.24860    0.57430    0.21250    1.000
    C71      C        0.15000    0.60970    0.23190    1.000
    H64      H        0.15580    0.64950    0.18140    1.000
    C72      C        0.25680    0.44900    0.33420    1.000
    H65      H        0.24960    0.41880    0.41610    1.000
    H66      H        0.30410    0.47020    0.36590    1.000
    C73      C        0.25820    0.41090    0.19660    1.000
    H67      H        0.21050    0.39040    0.16510    1.000
    H68      H        0.26510    0.44150    0.11520    1.000
    C74      C        0.41880    0.29610    0.34250    1.000
    H69      H        0.45390    0.29040    0.43150    1.000
    C75      C        0.36930    0.34750    0.33900    1.000
    H70      H        0.37160    0.37580    0.42370    1.000
    C76      C        0.31580    0.35680    0.20730    1.000
    C77      C        0.31720    0.31530    0.08590    1.000
    H71      H        0.28340    0.32080    0.99450    1.000
    C78      C        0.36880    0.26490    0.09810    1.000
    H72      H        0.36870    0.23710    0.01360    1.000
    N21      N        0.49810    0.16813    0.00390    1.000
    N22      N        0.41156    0.10049    0.21560    1.000
    N23      N        0.08095    0.75450    0.27340    1.000
    C79      C        0.49850    0.15270    0.88190    1.000
    C80      C        0.41750    0.04230    0.14610    1.000
    H73      H        0.45950    0.03470    0.10510    1.000
    C81      C        0.36550    0.99240    0.13100    1.000
    H74      H        0.37370    0.95200    0.08500    1.000
    C82      C        0.30250    0.00270    0.18370    1.000
    C83      C        0.29440    0.06430    0.25250    1.000
    H75      H        0.25140    0.07430    0.28750    1.000
    C84      C        0.35000    0.10970    0.26810    1.000
    H76      H        0.34420    0.14950    0.31860    1.000
    C85      C        0.24320    0.94900    0.16580    1.000
    H77      H        0.25040    0.91880    0.08390    1.000
    H78      H        0.19590    0.97020    0.13410    1.000
    C86      C        0.24180    0.91090    0.30340    1.000
    H79      H        0.28950    0.89040    0.33490    1.000
    H80      H        0.23490    0.94150    0.38480    1.000
    C87      C        0.08120    0.79610    0.15750    1.000
    H81      H        0.04610    0.79040    0.06850    1.000
    C88      C        0.13070    0.84750    0.16100    1.000
    H82      H        0.12840    0.87580    0.07630    1.000
    C89      C        0.18420    0.85680    0.29270    1.000
    C90      C        0.18280    0.81530    0.41410    1.000
    H83      H        0.21660    0.82080    0.50550    1.000
    C91      C        0.13120    0.76490    0.40190    1.000
    H84      H        0.13130    0.73710    0.48640    1.000
    N24      N        0.99810    0.66813    0.00390    1.000
    N25      N        0.91156    0.60049    0.21560    1.000
    N26      N        0.58095    0.25450    0.27340    1.000
    C92      C        0.99850    0.65270    0.88190    1.000
    C93      C        0.91750    0.54230    0.14610    1.000
    H85      H        0.95950    0.53470    0.10510    1.000
    C94      C        0.86550    0.49240    0.13100    1.000
    H86      H        0.87370    0.45200    0.08500    1.000
    C95      C        0.80250    0.50270    0.18370    1.000
    C96      C        0.79440    0.56430    0.25250    1.000
    H87      H        0.75140    0.57430    0.28750    1.000
    C97      C        0.85000    0.60970    0.26810    1.000
    H88      H        0.84420    0.64950    0.31860    1.000
    C98      C        0.74320    0.44900    0.16580    1.000
    H89      H        0.75040    0.41880    0.08390    1.000
    H90      H        0.69590    0.47020    0.13410    1.000
    C99      C        0.74180    0.41090    0.30340    1.000
    H91      H        0.78950    0.39040    0.33490    1.000
    H92      H        0.73490    0.44150    0.38480    1.000
    C100     C        0.58120    0.29610    0.15750    1.000
    H93      H        0.54610    0.29040    0.06850    1.000
    C101     C        0.63070    0.34750    0.16100    1.000
    H94      H        0.62840    0.37580    0.07630    1.000
    C102     C        0.68420    0.35680    0.29270    1.000
    C103     C        0.68280    0.31530    0.41410    1.000
    H95      H        0.71660    0.32080    0.50550    1.000
    C104     C        0.63120    0.26490    0.40190    1.000
    H96      H        0.63130    0.23710    0.48640    1.000
    Zn3      Zn       0.50000    0.17594    0.25000    1.000
    Zn4      Zn       0.00000    0.67594    0.25000    1.000
    N27      N        0.50000    0.12380    0.75000    1.000
    N28      N        0.00000    0.62380    0.75000    1.000
