# CIF file generated by openbabel 3.1.0, see https://openbabel.org
data_I
_chemical_name_common 'image0'
_cell_length_a 21.9368
_cell_length_b 16.8155
_cell_length_c 25.4998
_cell_angle_alpha 90
_cell_angle_beta 115.121
_cell_angle_gamma 90
_space_group_name_H-M_alt 'P 1'
_space_group_name_Hall 'P 1'
loop_
    _symmetry_equiv_pos_as_xyz
    x,y,z
loop_
    _atom_site_label
    _atom_site_type_symbol
    _atom_site_fract_x
    _atom_site_fract_y
    _atom_site_fract_z
    _atom_site_occupancy
    Ag1      Ag       0.65577    0.45643    0.63345    1.000
    Ag2      Ag       0.67883    0.75699    0.13374    1.000
    C1       C        0.40260    0.97160    0.00170    1.000
    C2       C        0.96780    0.80920    0.59140    1.000
    H1       H        0.94650    0.78790    0.61290    1.000
    C3       C        0.87710    0.75570    0.50050    1.000
    C4       C        0.94040    0.79950    0.53270    1.000
    C5       C        0.70230    0.58340    0.49630    1.000
    H2       H        0.68030    0.58710    0.45610    1.000
    C6       C        0.55600    0.84530    0.03730    1.000
    H3       H        0.57570    0.81760    0.01700    1.000
    C7       C        0.49670    0.88480    0.00610    1.000
    H4       H        0.47670    0.88290    0.96580    1.000
    C8       C        0.31950    0.05230    0.99580    1.000
    C9       C        0.46730    0.92750    0.03560    1.000
    C10      C        0.27990    0.15220    0.10940    1.000
    H5       H        0.29950    0.15650    0.14950    1.000
    C11      C        0.22370    0.13900    0.99190    1.000
    H6       H        0.20340    0.13610    0.95170    1.000
    C12      C        0.79030    0.72530    0.41450    1.000
    C13      C        0.75770    0.73660    0.35100    1.000
    C14      C        0.76450    0.56430    0.61280    1.000
    H7       H        0.78580    0.55760    0.65270    1.000
    C15      C        0.28810    0.99140    0.85000    1.000
    C16      C        0.76500    0.62100    0.52770    1.000
    C17      C        0.28630    0.10130    0.02500    1.000
    C18      C        0.97480    0.83400    0.50270    1.000
    H8       H        0.95780    0.83020    0.46260    1.000
    C19      C        0.79620    0.60940    0.58660    1.000
    H9       H        0.83820    0.63180    0.60850    1.000
    C20      C        0.32160    0.95560    0.82180    1.000
    H10      H        0.36540    0.93740    0.84220    1.000
    C21      C        0.32020    0.00160    0.91390    1.000
    C22      C        0.79490    0.67150    0.49700    1.000
    C23      C        0.67520    0.54100    0.52740    1.000
    H11      H        0.63280    0.51870    0.50710    1.000
    C24      C        0.19390    0.18080    0.02240    1.000
    H12      H        0.15270    0.20550    0.00130    1.000
    C25      C        0.31380    0.10950    0.08330    1.000
    H13      H        0.35540    0.08660    0.10580    1.000
    C26      C        0.03290    0.87270    0.53340    1.000
    H14      H        0.05510    0.89480    0.51290    1.000
    C27      C        0.49890    0.92760    0.09520    1.000
    H15      H        0.48110    0.95620    0.11660    1.000
    C28      C        0.02750    0.85120    0.61850    1.000
    H16      H        0.04510    0.85820    0.65840    1.000
    C29      C        0.28870    0.94700    0.76190    1.000
    H17      H        0.31210    0.92400    0.74280    1.000
    C30      C        0.19510    0.00500    0.75940    1.000
    H18      H        0.15140    0.02330    0.73810    1.000
    C31      C        0.75550    0.79420    0.26560    1.000
    H19      H        0.77390    0.82960    0.24830    1.000
    C32      C        0.22290    0.01690    0.81900    1.000
    H20      H        0.19860    0.04080    0.83710    1.000
    C33      C        0.55640    0.88510    0.12210    1.000
    H21      H        0.57620    0.88440    0.16230    1.000
    C34      C        0.78640    0.78550    0.32410    1.000
    H22      H        0.82630    0.81220    0.34580    1.000
    C35      C        0.69750    0.69920    0.31700    1.000
    H23      H        0.67480    0.66850    0.33330    1.000
    C36      C        0.67290    0.70920    0.25830    1.000
    H24      H        0.63370    0.68190    0.23550    1.000
    N1       N        0.70460    0.52970    0.58370    1.000
    N2       N        0.06080    0.88170    0.59030    1.000
    N3       N        0.69970    0.75410    0.23150    1.000
    N4       N        0.76300    0.67710    0.43970    1.000
    N5       N        0.85240    0.70990    0.52980    1.000
    N6       N        0.84790    0.76550    0.44320    1.000
    N7       N        0.58670    0.84410    0.09470    1.000
    N8       N        0.22070    0.18720    0.07950    1.000
    N9       N        0.22550    0.97000    0.73070    1.000
    N10      N        0.37740    0.96230    0.94370    1.000
    N11      N        0.37520    0.01300    0.02910    1.000
    N12      N        0.29000    0.04930    0.93780    1.000
    Ag3      Ag       0.15577    0.95643    0.63345    1.000
    Ag4      Ag       0.17883    0.25699    0.13374    1.000
    C37      C        0.90260    0.47160    0.00170    1.000
    C38      C        0.46780    0.30920    0.59140    1.000
    H25      H        0.44650    0.28790    0.61290    1.000
    C39      C        0.37710    0.25570    0.50050    1.000
    C40      C        0.44040    0.29950    0.53270    1.000
    C41      C        0.20230    0.08340    0.49630    1.000
    H26      H        0.18030    0.08710    0.45610    1.000
    C42      C        0.05600    0.34530    0.03730    1.000
    H27      H        0.07570    0.31760    0.01700    1.000
    C43      C        0.99670    0.38480    0.00610    1.000
    H28      H        0.97670    0.38290    0.96580    1.000
    C44      C        0.81950    0.55230    0.99580    1.000
    C45      C        0.96730    0.42750    0.03560    1.000
    C46      C        0.77990    0.65220    0.10940    1.000
    H29      H        0.79950    0.65650    0.14950    1.000
    C47      C        0.72370    0.63900    0.99190    1.000
    H30      H        0.70340    0.63610    0.95170    1.000
    C48      C        0.29030    0.22530    0.41450    1.000
    C49      C        0.25770    0.23660    0.35100    1.000
    C50      C        0.26450    0.06430    0.61280    1.000
    H31      H        0.28580    0.05760    0.65270    1.000
    C51      C        0.78810    0.49140    0.85000    1.000
    C52      C        0.26500    0.12100    0.52770    1.000
    C53      C        0.78630    0.60130    0.02500    1.000
    C54      C        0.47480    0.33400    0.50270    1.000
    H32      H        0.45780    0.33020    0.46260    1.000
    C55      C        0.29620    0.10940    0.58660    1.000
    H33      H        0.33820    0.13180    0.60850    1.000
    C56      C        0.82160    0.45560    0.82180    1.000
    H34      H        0.86540    0.43740    0.84220    1.000
    C57      C        0.82020    0.50160    0.91390    1.000
    C58      C        0.29490    0.17150    0.49700    1.000
    C59      C        0.17520    0.04100    0.52740    1.000
    H35      H        0.13280    0.01870    0.50710    1.000
    C60      C        0.69390    0.68080    0.02240    1.000
    H36      H        0.65270    0.70550    0.00130    1.000
    C61      C        0.81380    0.60950    0.08330    1.000
    H37      H        0.85540    0.58660    0.10580    1.000
    C62      C        0.53290    0.37270    0.53340    1.000
    H38      H        0.55510    0.39480    0.51290    1.000
    C63      C        0.99890    0.42760    0.09520    1.000
    H39      H        0.98110    0.45620    0.11660    1.000
    C64      C        0.52750    0.35120    0.61850    1.000
    H40      H        0.54510    0.35820    0.65840    1.000
    C65      C        0.78870    0.44700    0.76190    1.000
    H41      H        0.81210    0.42400    0.74280    1.000
    C66      C        0.69510    0.50500    0.75940    1.000
    H42      H        0.65140    0.52330    0.73810    1.000
    C67      C        0.25550    0.29420    0.26560    1.000
    H43      H        0.27390    0.32960    0.24830    1.000
    C68      C        0.72290    0.51690    0.81900    1.000
    H44      H        0.69860    0.54080    0.83710    1.000
    C69      C        0.05640    0.38510    0.12210    1.000
    H45      H        0.07620    0.38440    0.16230    1.000
    C70      C        0.28640    0.28550    0.32410    1.000
    H46      H        0.32630    0.31220    0.34580    1.000
    C71      C        0.19750    0.19920    0.31700    1.000
    H47      H        0.17480    0.16850    0.33330    1.000
    C72      C        0.17290    0.20920    0.25830    1.000
    H48      H        0.13370    0.18190    0.23550    1.000
    N13      N        0.20460    0.02970    0.58370    1.000
    N14      N        0.56080    0.38170    0.59030    1.000
    N15      N        0.19970    0.25410    0.23150    1.000
    N16      N        0.26300    0.17710    0.43970    1.000
    N17      N        0.35240    0.20990    0.52980    1.000
    N18      N        0.34790    0.26550    0.44320    1.000
    N19      N        0.08670    0.34410    0.09470    1.000
    N20      N        0.72070    0.68720    0.07950    1.000
    N21      N        0.72550    0.47000    0.73070    1.000
    N22      N        0.87740    0.46230    0.94370    1.000
    N23      N        0.87520    0.51300    0.02910    1.000
    N24      N        0.79000    0.54930    0.93780    1.000
    Ag5      Ag       0.34423    0.45643    0.86655    1.000
    Ag6      Ag       0.32117    0.75699    0.36626    1.000
    C73      C        0.59740    0.97160    0.49830    1.000
    C74      C        0.03220    0.80920    0.90860    1.000
    H49      H        0.05350    0.78790    0.88710    1.000
    C75      C        0.12290    0.75570    0.99950    1.000
    C76      C        0.05960    0.79950    0.96730    1.000
    C77      C        0.29770    0.58340    0.00370    1.000
    H50      H        0.31970    0.58710    0.04390    1.000
    C78      C        0.44400    0.84530    0.46270    1.000
    H51      H        0.42430    0.81760    0.48300    1.000
    C79      C        0.50330    0.88480    0.49390    1.000
    H52      H        0.52330    0.88290    0.53420    1.000
    C80      C        0.68050    0.05230    0.50420    1.000
    C81      C        0.53270    0.92750    0.46440    1.000
    C82      C        0.72010    0.15220    0.39060    1.000
    H53      H        0.70050    0.15650    0.35050    1.000
    C83      C        0.77630    0.13900    0.50810    1.000
    H54      H        0.79660    0.13610    0.54830    1.000
    C84      C        0.20970    0.72530    0.08550    1.000
    C85      C        0.24230    0.73660    0.14900    1.000
    C86      C        0.23550    0.56430    0.88720    1.000
    H55      H        0.21420    0.55760    0.84730    1.000
    C87      C        0.71190    0.99140    0.65000    1.000
    C88      C        0.23500    0.62100    0.97230    1.000
    C89      C        0.71370    0.10130    0.47500    1.000
    C90      C        0.02520    0.83400    0.99730    1.000
    H56      H        0.04220    0.83020    0.03740    1.000
    C91      C        0.20380    0.60940    0.91340    1.000
    H57      H        0.16180    0.63180    0.89150    1.000
    C92      C        0.67840    0.95560    0.67820    1.000
    H58      H        0.63460    0.93740    0.65780    1.000
    C93      C        0.67980    0.00160    0.58610    1.000
    C94      C        0.20510    0.67150    0.00300    1.000
    C95      C        0.32480    0.54100    0.97260    1.000
    H59      H        0.36720    0.51870    0.99290    1.000
    C96      C        0.80610    0.18080    0.47760    1.000
    H60      H        0.84730    0.20550    0.49870    1.000
    C97      C        0.68620    0.10950    0.41670    1.000
    H61      H        0.64460    0.08660    0.39420    1.000
    C98      C        0.96710    0.87270    0.96660    1.000
    H62      H        0.94490    0.89480    0.98710    1.000
    C99      C        0.50110    0.92760    0.40480    1.000
    H63      H        0.51890    0.95620    0.38340    1.000
    C100     C        0.97250    0.85120    0.88150    1.000
    H64      H        0.95490    0.85820    0.84160    1.000
    C101     C        0.71130    0.94700    0.73810    1.000
    H65      H        0.68790    0.92400    0.75720    1.000
    C102     C        0.80490    0.00500    0.74060    1.000
    H66      H        0.84860    0.02330    0.76190    1.000
    C103     C        0.24450    0.79420    0.23440    1.000
    H67      H        0.22610    0.82960    0.25170    1.000
    C104     C        0.77710    0.01690    0.68100    1.000
    H68      H        0.80140    0.04080    0.66290    1.000
    C105     C        0.44360    0.88510    0.37790    1.000
    H69      H        0.42380    0.88440    0.33770    1.000
    C106     C        0.21360    0.78550    0.17590    1.000
    H70      H        0.17370    0.81220    0.15420    1.000
    C107     C        0.30250    0.69920    0.18300    1.000
    H71      H        0.32520    0.66850    0.16670    1.000
    C108     C        0.32710    0.70920    0.24170    1.000
    H72      H        0.36630    0.68190    0.26450    1.000
    N25      N        0.29540    0.52970    0.91630    1.000
    N26      N        0.93920    0.88170    0.90970    1.000
    N27      N        0.30030    0.75410    0.26850    1.000
    N28      N        0.23700    0.67710    0.06030    1.000
    N29      N        0.14760    0.70990    0.97020    1.000
    N30      N        0.15210    0.76550    0.05680    1.000
    N31      N        0.41330    0.84410    0.40530    1.000
    N32      N        0.77930    0.18720    0.42050    1.000
    N33      N        0.77450    0.97000    0.76930    1.000
    N34      N        0.62260    0.96230    0.55630    1.000
    N35      N        0.62480    0.01300    0.47090    1.000
    N36      N        0.71000    0.04930    0.56220    1.000
    Ag7      Ag       0.84423    0.95643    0.86655    1.000
    Ag8      Ag       0.82117    0.25699    0.36626    1.000
    C109     C        0.09740    0.47160    0.49830    1.000
    C110     C        0.53220    0.30920    0.90860    1.000
    H73      H        0.55350    0.28790    0.88710    1.000
    C111     C        0.62290    0.25570    0.99950    1.000
    C112     C        0.55960    0.29950    0.96730    1.000
    C113     C        0.79770    0.08340    0.00370    1.000
    H74      H        0.81970    0.08710    0.04390    1.000
    C114     C        0.94400    0.34530    0.46270    1.000
    H75      H        0.92430    0.31760    0.48300    1.000
    C115     C        0.00330    0.38480    0.49390    1.000
    H76      H        0.02330    0.38290    0.53420    1.000
    C116     C        0.18050    0.55230    0.50420    1.000
    C117     C        0.03270    0.42750    0.46440    1.000
    C118     C        0.22010    0.65220    0.39060    1.000
    H77      H        0.20050    0.65650    0.35050    1.000
    C119     C        0.27630    0.63900    0.50810    1.000
    H78      H        0.29660    0.63610    0.54830    1.000
    C120     C        0.70970    0.22530    0.08550    1.000
    C121     C        0.74230    0.23660    0.14900    1.000
    C122     C        0.73550    0.06430    0.88720    1.000
    H79      H        0.71420    0.05760    0.84730    1.000
    C123     C        0.21190    0.49140    0.65000    1.000
    C124     C        0.73500    0.12100    0.97230    1.000
    C125     C        0.21370    0.60130    0.47500    1.000
    C126     C        0.52520    0.33400    0.99730    1.000
    H80      H        0.54220    0.33020    0.03740    1.000
    C127     C        0.70380    0.10940    0.91340    1.000
    H81      H        0.66180    0.13180    0.89150    1.000
    C128     C        0.17840    0.45560    0.67820    1.000
    H82      H        0.13460    0.43740    0.65780    1.000
    C129     C        0.17980    0.50160    0.58610    1.000
    C130     C        0.70510    0.17150    0.00300    1.000
    C131     C        0.82480    0.04100    0.97260    1.000
    H83      H        0.86720    0.01870    0.99290    1.000
    C132     C        0.30610    0.68080    0.47760    1.000
    H84      H        0.34730    0.70550    0.49870    1.000
    C133     C        0.18620    0.60950    0.41670    1.000
    H85      H        0.14460    0.58660    0.39420    1.000
    C134     C        0.46710    0.37270    0.96660    1.000
    H86      H        0.44490    0.39480    0.98710    1.000
    C135     C        0.00110    0.42760    0.40480    1.000
    H87      H        0.01890    0.45620    0.38340    1.000
    C136     C        0.47250    0.35120    0.88150    1.000
    H88      H        0.45490    0.35820    0.84160    1.000
    C137     C        0.21130    0.44700    0.73810    1.000
    H89      H        0.18790    0.42400    0.75720    1.000
    C138     C        0.30490    0.50500    0.74060    1.000
    H90      H        0.34860    0.52330    0.76190    1.000
    C139     C        0.74450    0.29420    0.23440    1.000
    H91      H        0.72610    0.32960    0.25170    1.000
    C140     C        0.27710    0.51690    0.68100    1.000
    H92      H        0.30140    0.54080    0.66290    1.000
    C141     C        0.94360    0.38510    0.37790    1.000
    H93      H        0.92380    0.38440    0.33770    1.000
    C142     C        0.71360    0.28550    0.17590    1.000
    H94      H        0.67370    0.31220    0.15420    1.000
    C143     C        0.80250    0.19920    0.18300    1.000
    H95      H        0.82520    0.16850    0.16670    1.000
    C144     C        0.82710    0.20920    0.24170    1.000
    H96      H        0.86630    0.18190    0.26450    1.000
    N37      N        0.79540    0.02970    0.91630    1.000
    N38      N        0.43920    0.38170    0.90970    1.000
    N39      N        0.80030    0.25410    0.26850    1.000
    N40      N        0.73700    0.17710    0.06030    1.000
    N41      N        0.64760    0.20990    0.97020    1.000
    N42      N        0.65210    0.26550    0.05680    1.000
    N43      N        0.91330    0.34410    0.40530    1.000
    N44      N        0.27930    0.68720    0.42050    1.000
    N45      N        0.27450    0.47000    0.76930    1.000
    N46      N        0.12260    0.46230    0.55630    1.000
    N47      N        0.12480    0.51300    0.47090    1.000
    N48      N        0.21000    0.54930    0.56220    1.000
    Ag9      Ag       0.34423    0.54357    0.36655    1.000
    Ag10     Ag       0.32117    0.24301    0.86626    1.000
    C145     C        0.59740    0.02840    0.99830    1.000
    C146     C        0.03220    0.19080    0.40860    1.000
    H97      H        0.05350    0.21210    0.38710    1.000
    C147     C        0.12290    0.24430    0.49950    1.000
    C148     C        0.05960    0.20050    0.46730    1.000
    C149     C        0.29770    0.41660    0.50370    1.000
    H98      H        0.31970    0.41290    0.54390    1.000
    C150     C        0.44400    0.15470    0.96270    1.000
    H99      H        0.42430    0.18240    0.98300    1.000
    C151     C        0.50330    0.11520    0.99390    1.000
    H100     H        0.52330    0.11710    0.03420    1.000
    C152     C        0.68050    0.94770    0.00420    1.000
    C153     C        0.53270    0.07250    0.96440    1.000
    C154     C        0.72010    0.84780    0.89060    1.000
    H101     H        0.70050    0.84350    0.85050    1.000
    C155     C        0.77630    0.86100    0.00810    1.000
    H102     H        0.79660    0.86390    0.04830    1.000
    C156     C        0.20970    0.27470    0.58550    1.000
    C157     C        0.24230    0.26340    0.64900    1.000
    C158     C        0.23550    0.43570    0.38720    1.000
    H103     H        0.21420    0.44240    0.34730    1.000
    C159     C        0.71190    0.00860    0.15000    1.000
    C160     C        0.23500    0.37900    0.47230    1.000
    C161     C        0.71370    0.89870    0.97500    1.000
    C162     C        0.02520    0.16600    0.49730    1.000
    H104     H        0.04220    0.16980    0.53740    1.000
    C163     C        0.20380    0.39060    0.41340    1.000
    H105     H        0.16180    0.36820    0.39150    1.000
    C164     C        0.67840    0.04440    0.17820    1.000
    H106     H        0.63460    0.06260    0.15780    1.000
    C165     C        0.67980    0.99840    0.08610    1.000
    C166     C        0.20510    0.32850    0.50300    1.000
    C167     C        0.32480    0.45900    0.47260    1.000
    H107     H        0.36720    0.48130    0.49290    1.000
    C168     C        0.80610    0.81920    0.97760    1.000
    H108     H        0.84730    0.79450    0.99870    1.000
    C169     C        0.68620    0.89050    0.91670    1.000
    H109     H        0.64460    0.91340    0.89420    1.000
    C170     C        0.96710    0.12730    0.46660    1.000
    H110     H        0.94490    0.10520    0.48710    1.000
    C171     C        0.50110    0.07240    0.90480    1.000
    H111     H        0.51890    0.04380    0.88340    1.000
    C172     C        0.97250    0.14880    0.38150    1.000
    H112     H        0.95490    0.14180    0.34160    1.000
    C173     C        0.71130    0.05300    0.23810    1.000
    H113     H        0.68790    0.07600    0.25720    1.000
    C174     C        0.80490    0.99500    0.24060    1.000
    H114     H        0.84860    0.97670    0.26190    1.000
    C175     C        0.24450    0.20580    0.73440    1.000
    H115     H        0.22610    0.17040    0.75170    1.000
    C176     C        0.77710    0.98310    0.18100    1.000
    H116     H        0.80140    0.95920    0.16290    1.000
    C177     C        0.44360    0.11490    0.87790    1.000
    H117     H        0.42380    0.11560    0.83770    1.000
    C178     C        0.21360    0.21450    0.67590    1.000
    H118     H        0.17370    0.18780    0.65420    1.000
    C179     C        0.30250    0.30080    0.68300    1.000
    H119     H        0.32520    0.33150    0.66670    1.000
    C180     C        0.32710    0.29080    0.74170    1.000
    H120     H        0.36630    0.31810    0.76450    1.000
    N49      N        0.29540    0.47030    0.41630    1.000
    N50      N        0.93920    0.11830    0.40970    1.000
    N51      N        0.30030    0.24590    0.76850    1.000
    N52      N        0.23700    0.32290    0.56030    1.000
    N53      N        0.14760    0.29010    0.47020    1.000
    N54      N        0.15210    0.23450    0.55680    1.000
    N55      N        0.41330    0.15590    0.90530    1.000
    N56      N        0.77930    0.81280    0.92050    1.000
    N57      N        0.77450    0.03000    0.26930    1.000
    N58      N        0.62260    0.03770    0.05630    1.000
    N59      N        0.62480    0.98700    0.97090    1.000
    N60      N        0.71000    0.95070    0.06220    1.000
    Ag11     Ag       0.84423    0.04357    0.36655    1.000
    Ag12     Ag       0.82117    0.74301    0.86626    1.000
    C181     C        0.09740    0.52840    0.99830    1.000
    C182     C        0.53220    0.69080    0.40860    1.000
    H121     H        0.55350    0.71210    0.38710    1.000
    C183     C        0.62290    0.74430    0.49950    1.000
    C184     C        0.55960    0.70050    0.46730    1.000
    C185     C        0.79770    0.91660    0.50370    1.000
    H122     H        0.81970    0.91290    0.54390    1.000
    C186     C        0.94400    0.65470    0.96270    1.000
    H123     H        0.92430    0.68240    0.98300    1.000
    C187     C        0.00330    0.61520    0.99390    1.000
    H124     H        0.02330    0.61710    0.03420    1.000
    C188     C        0.18050    0.44770    0.00420    1.000
    C189     C        0.03270    0.57250    0.96440    1.000
    C190     C        0.22010    0.34780    0.89060    1.000
    H125     H        0.20050    0.34350    0.85050    1.000
    C191     C        0.27630    0.36100    0.00810    1.000
    H126     H        0.29660    0.36390    0.04830    1.000
    C192     C        0.70970    0.77470    0.58550    1.000
    C193     C        0.74230    0.76340    0.64900    1.000
    C194     C        0.73550    0.93570    0.38720    1.000
    H127     H        0.71420    0.94240    0.34730    1.000
    C195     C        0.21190    0.50860    0.15000    1.000
    C196     C        0.73500    0.87900    0.47230    1.000
    C197     C        0.21370    0.39870    0.97500    1.000
    C198     C        0.52520    0.66600    0.49730    1.000
    H128     H        0.54220    0.66980    0.53740    1.000
    C199     C        0.70380    0.89060    0.41340    1.000
    H129     H        0.66180    0.86820    0.39150    1.000
    C200     C        0.17840    0.54440    0.17820    1.000
    H130     H        0.13460    0.56260    0.15780    1.000
    C201     C        0.17980    0.49840    0.08610    1.000
    C202     C        0.70510    0.82850    0.50300    1.000
    C203     C        0.82480    0.95900    0.47260    1.000
    H131     H        0.86720    0.98130    0.49290    1.000
    C204     C        0.30610    0.31920    0.97760    1.000
    H132     H        0.34730    0.29450    0.99870    1.000
    C205     C        0.18620    0.39050    0.91670    1.000
    H133     H        0.14460    0.41340    0.89420    1.000
    C206     C        0.46710    0.62730    0.46660    1.000
    H134     H        0.44490    0.60520    0.48710    1.000
    C207     C        0.00110    0.57240    0.90480    1.000
    H135     H        0.01890    0.54380    0.88340    1.000
    C208     C        0.47250    0.64880    0.38150    1.000
    H136     H        0.45490    0.64180    0.34160    1.000
    C209     C        0.21130    0.55300    0.23810    1.000
    H137     H        0.18790    0.57600    0.25720    1.000
    C210     C        0.30490    0.49500    0.24060    1.000
    H138     H        0.34860    0.47670    0.26190    1.000
    C211     C        0.74450    0.70580    0.73440    1.000
    H139     H        0.72610    0.67040    0.75170    1.000
    C212     C        0.27710    0.48310    0.18100    1.000
    H140     H        0.30140    0.45920    0.16290    1.000
    C213     C        0.94360    0.61490    0.87790    1.000
    H141     H        0.92380    0.61560    0.83770    1.000
    C214     C        0.71360    0.71450    0.67590    1.000
    H142     H        0.67370    0.68780    0.65420    1.000
    C215     C        0.80250    0.80080    0.68300    1.000
    H143     H        0.82520    0.83150    0.66670    1.000
    C216     C        0.82710    0.79080    0.74170    1.000
    H144     H        0.86630    0.81810    0.76450    1.000
    N61      N        0.79540    0.97030    0.41630    1.000
    N62      N        0.43920    0.61830    0.40970    1.000
    N63      N        0.80030    0.74590    0.76850    1.000
    N64      N        0.73700    0.82290    0.56030    1.000
    N65      N        0.64760    0.79010    0.47020    1.000
    N66      N        0.65210    0.73450    0.55680    1.000
    N67      N        0.91330    0.65590    0.90530    1.000
    N68      N        0.27930    0.31280    0.92050    1.000
    N69      N        0.27450    0.53000    0.26930    1.000
    N70      N        0.12260    0.53770    0.05630    1.000
    N71      N        0.12480    0.48700    0.97090    1.000
    N72      N        0.21000    0.45070    0.06220    1.000
    Ag13     Ag       0.65577    0.54357    0.13345    1.000
    Ag14     Ag       0.67883    0.24301    0.63374    1.000
    C217     C        0.40260    0.02840    0.50170    1.000
    C218     C        0.96780    0.19080    0.09140    1.000
    H145     H        0.94650    0.21210    0.11290    1.000
    C219     C        0.87710    0.24430    0.00050    1.000
    C220     C        0.94040    0.20050    0.03270    1.000
    C221     C        0.70230    0.41660    0.99630    1.000
    H146     H        0.68030    0.41290    0.95610    1.000
    C222     C        0.55600    0.15470    0.53730    1.000
    H147     H        0.57570    0.18240    0.51700    1.000
    C223     C        0.49670    0.11520    0.50610    1.000
    H148     H        0.47670    0.11710    0.46580    1.000
    C224     C        0.31950    0.94770    0.49580    1.000
    C225     C        0.46730    0.07250    0.53560    1.000
    C226     C        0.27990    0.84780    0.60940    1.000
    H149     H        0.29950    0.84350    0.64950    1.000
    C227     C        0.22370    0.86100    0.49190    1.000
    H150     H        0.20340    0.86390    0.45170    1.000
    C228     C        0.79030    0.27470    0.91450    1.000
    C229     C        0.75770    0.26340    0.85100    1.000
    C230     C        0.76450    0.43570    0.11280    1.000
    H151     H        0.78580    0.44240    0.15270    1.000
    C231     C        0.28810    0.00860    0.35000    1.000
    C232     C        0.76500    0.37900    0.02770    1.000
    C233     C        0.28630    0.89870    0.52500    1.000
    C234     C        0.97480    0.16600    0.00270    1.000
    H152     H        0.95780    0.16980    0.96260    1.000
    C235     C        0.79620    0.39060    0.08660    1.000
    H153     H        0.83820    0.36820    0.10850    1.000
    C236     C        0.32160    0.04440    0.32180    1.000
    H154     H        0.36540    0.06260    0.34220    1.000
    C237     C        0.32020    0.99840    0.41390    1.000
    C238     C        0.79490    0.32850    0.99700    1.000
    C239     C        0.67520    0.45900    0.02740    1.000
    H155     H        0.63280    0.48130    0.00710    1.000
    C240     C        0.19390    0.81920    0.52240    1.000
    H156     H        0.15270    0.79450    0.50130    1.000
    C241     C        0.31380    0.89050    0.58330    1.000
    H157     H        0.35540    0.91340    0.60580    1.000
    C242     C        0.03290    0.12730    0.03340    1.000
    H158     H        0.05510    0.10520    0.01290    1.000
    C243     C        0.49890    0.07240    0.59520    1.000
    H159     H        0.48110    0.04380    0.61660    1.000
    C244     C        0.02750    0.14880    0.11850    1.000
    H160     H        0.04510    0.14180    0.15840    1.000
    C245     C        0.28870    0.05300    0.26190    1.000
    H161     H        0.31210    0.07600    0.24280    1.000
    C246     C        0.19510    0.99500    0.25940    1.000
    H162     H        0.15140    0.97670    0.23810    1.000
    C247     C        0.75550    0.20580    0.76560    1.000
    H163     H        0.77390    0.17040    0.74830    1.000
    C248     C        0.22290    0.98310    0.31900    1.000
    H164     H        0.19860    0.95920    0.33710    1.000
    C249     C        0.55640    0.11490    0.62210    1.000
    H165     H        0.57620    0.11560    0.66230    1.000
    C250     C        0.78640    0.21450    0.82410    1.000
    H166     H        0.82630    0.18780    0.84580    1.000
    C251     C        0.69750    0.30080    0.81700    1.000
    H167     H        0.67480    0.33150    0.83330    1.000
    C252     C        0.67290    0.29080    0.75830    1.000
    H168     H        0.63370    0.31810    0.73550    1.000
    N73      N        0.70460    0.47030    0.08370    1.000
    N74      N        0.06080    0.11830    0.09030    1.000
    N75      N        0.69970    0.24590    0.73150    1.000
    N76      N        0.76300    0.32290    0.93970    1.000
    N77      N        0.85240    0.29010    0.02980    1.000
    N78      N        0.84790    0.23450    0.94320    1.000
    N79      N        0.58670    0.15590    0.59470    1.000
    N80      N        0.22070    0.81280    0.57950    1.000
    N81      N        0.22550    0.03000    0.23070    1.000
    N82      N        0.37740    0.03770    0.44370    1.000
    N83      N        0.37520    0.98700    0.52910    1.000
    N84      N        0.29000    0.95070    0.43780    1.000
    Ag15     Ag       0.15577    0.04357    0.13345    1.000
    Ag16     Ag       0.17883    0.74301    0.63374    1.000
    C253     C        0.90260    0.52840    0.50170    1.000
    C254     C        0.46780    0.69080    0.09140    1.000
    H169     H        0.44650    0.71210    0.11290    1.000
    C255     C        0.37710    0.74430    0.00050    1.000
    C256     C        0.44040    0.70050    0.03270    1.000
    C257     C        0.20230    0.91660    0.99630    1.000
    H170     H        0.18030    0.91290    0.95610    1.000
    C258     C        0.05600    0.65470    0.53730    1.000
    H171     H        0.07570    0.68240    0.51700    1.000
    C259     C        0.99670    0.61520    0.50610    1.000
    H172     H        0.97670    0.61710    0.46580    1.000
    C260     C        0.81950    0.44770    0.49580    1.000
    C261     C        0.96730    0.57250    0.53560    1.000
    C262     C        0.77990    0.34780    0.60940    1.000
    H173     H        0.79950    0.34350    0.64950    1.000
    C263     C        0.72370    0.36100    0.49190    1.000
    H174     H        0.70340    0.36390    0.45170    1.000
    C264     C        0.29030    0.77470    0.91450    1.000
    C265     C        0.25770    0.76340    0.85100    1.000
    C266     C        0.26450    0.93570    0.11280    1.000
    H175     H        0.28580    0.94240    0.15270    1.000
    C267     C        0.78810    0.50860    0.35000    1.000
    C268     C        0.26500    0.87900    0.02770    1.000
    C269     C        0.78630    0.39870    0.52500    1.000
    C270     C        0.47480    0.66600    0.00270    1.000
    H176     H        0.45780    0.66980    0.96260    1.000
    C271     C        0.29620    0.89060    0.08660    1.000
    H177     H        0.33820    0.86820    0.10850    1.000
    C272     C        0.82160    0.54440    0.32180    1.000
    H178     H        0.86540    0.56260    0.34220    1.000
    C273     C        0.82020    0.49840    0.41390    1.000
    C274     C        0.29490    0.82850    0.99700    1.000
    C275     C        0.17520    0.95900    0.02740    1.000
    H179     H        0.13280    0.98130    0.00710    1.000
    C276     C        0.69390    0.31920    0.52240    1.000
    H180     H        0.65270    0.29450    0.50130    1.000
    C277     C        0.81380    0.39050    0.58330    1.000
    H181     H        0.85540    0.41340    0.60580    1.000
    C278     C        0.53290    0.62730    0.03340    1.000
    H182     H        0.55510    0.60520    0.01290    1.000
    C279     C        0.99890    0.57240    0.59520    1.000
    H183     H        0.98110    0.54380    0.61660    1.000
    C280     C        0.52750    0.64880    0.11850    1.000
    H184     H        0.54510    0.64180    0.15840    1.000
    C281     C        0.78870    0.55300    0.26190    1.000
    H185     H        0.81210    0.57600    0.24280    1.000
    C282     C        0.69510    0.49500    0.25940    1.000
    H186     H        0.65140    0.47670    0.23810    1.000
    C283     C        0.25550    0.70580    0.76560    1.000
    H187     H        0.27390    0.67040    0.74830    1.000
    C284     C        0.72290    0.48310    0.31900    1.000
    H188     H        0.69860    0.45920    0.33710    1.000
    C285     C        0.05640    0.61490    0.62210    1.000
    H189     H        0.07620    0.61560    0.66230    1.000
    C286     C        0.28640    0.71450    0.82410    1.000
    H190     H        0.32630    0.68780    0.84580    1.000
    C287     C        0.19750    0.80080    0.81700    1.000
    H191     H        0.17480    0.83150    0.83330    1.000
    C288     C        0.17290    0.79080    0.75830    1.000
    H192     H        0.13370    0.81810    0.73550    1.000
    N85      N        0.20460    0.97030    0.08370    1.000
    N86      N        0.56080    0.61830    0.09030    1.000
    N87      N        0.19970    0.74590    0.73150    1.000
    N88      N        0.26300    0.82290    0.93970    1.000
    N89      N        0.35240    0.79010    0.02980    1.000
    N90      N        0.34790    0.73450    0.94320    1.000
    N91      N        0.08670    0.65590    0.59470    1.000
    N92      N        0.72070    0.31280    0.57950    1.000
    N93      N        0.72550    0.53000    0.23070    1.000
    N94      N        0.87740    0.53770    0.44370    1.000
    N95      N        0.87520    0.48700    0.52910    1.000
    N96      N        0.79000    0.45070    0.43780    1.000
