# CIF file generated by openbabel 3.1.0, see https://openbabel.org
data_I
_chemical_name_common 'LAGRIW_clean'
_cell_length_a 8.5679
_cell_length_b 10.1868
_cell_length_c 10.8724
_cell_angle_alpha 66.791
_cell_angle_beta 69.316
_cell_angle_gamma 78.246
_space_group_name_H-M_alt 'P 1'
_space_group_name_Hall 'P 1'
loop_
    _symmetry_equiv_pos_as_xyz
    x,y,z
loop_
    _atom_site_label
    _atom_site_type_symbol
    _atom_site_fract_x
    _atom_site_fract_y
    _atom_site_fract_z
    _atom_site_occupancy
    Yb1      Yb       0.34563    0.56698    0.84361    1.000
    Yb2      Yb       0.65437    0.43302    0.15639    1.000
    H1       H        0.79480    0.37310    0.51460    1.000
    H2       H        0.93330    0.65940    0.61690    1.000
    H3       H        0.28590    0.17650    0.01650    1.000
    H4       H        0.75920    0.03110    0.99860    1.000
    H5       H        0.85350    0.87720    0.72860    1.000
    H6       H        0.28640    0.95380    0.41830    1.000
    H7       H        0.20520    0.62690    0.48540    1.000
    H8       H        0.06670    0.34060    0.38310    1.000
    H9       H        0.71410    0.82350    0.98350    1.000
    H10      H        0.24080    0.96890    0.00140    1.000
    H11      H        0.14650    0.12280    0.27140    1.000
    H12      H        0.71360    0.04620    0.58170    1.000
    C1       C        0.66080    0.53960    0.66730    1.000
    C2       C        0.83610    0.51820    0.58180    1.000
    C3       C        0.87720    0.42380    0.50930    1.000
    C4       C        0.96020    0.59470    0.57020    1.000
    C5       C        0.55580    0.26000    0.01810    1.000
    C6       C        0.52730    0.12650    0.00740    1.000
    C7       C        0.37290    0.10580    0.00950    1.000
    C8       C        0.65440    0.01910    0.99880    1.000
    C9       C        0.17180    0.77930    0.68570    1.000
    C10      C        0.08320    0.89600    0.58900    1.000
    C11      C        0.91280    0.92640    0.63620    1.000
    C12      C        0.17120    0.97180    0.45120    1.000
    C13      C        0.33920    0.46040    0.33270    1.000
    C14      C        0.16390    0.48180    0.41820    1.000
    C15      C        0.12280    0.57620    0.49070    1.000
    C16      C        0.03980    0.40530    0.42980    1.000
    C17      C        0.44420    0.74000    0.98190    1.000
    C18      C        0.47270    0.87350    0.99260    1.000
    C19      C        0.62710    0.89420    0.99050    1.000
    C20      C        0.34560    0.98090    0.00120    1.000
    C21      C        0.82820    0.22070    0.31430    1.000
    C22      C        0.91680    0.10400    0.41100    1.000
    C23      C        0.08720    0.07360    0.36380    1.000
    C24      C        0.82880    0.02820    0.54880    1.000
    O1       O        0.62980    0.61790    0.74170    1.000
    O2       O        0.54560    0.48150    0.66720    1.000
    O3       O        0.47030    0.37290    0.97190    1.000
    O4       O        0.65850    0.25250    0.07850    1.000
    O5       O        0.32650    0.75140    0.63570    1.000
    O6       O        0.09270    0.71380    0.80920    1.000
    O7       O        0.37020    0.38210    0.25830    1.000
    O8       O        0.45440    0.51850    0.33280    1.000
    O9       O        0.52970    0.62710    0.02810    1.000
    O10      O        0.34150    0.74750    0.92150    1.000
    O11      O        0.67350    0.24860    0.36430    1.000
    O12      O        0.90730    0.28620    0.19080    1.000
