# CIF file generated by openbabel 3.1.0, see https://openbabel.org
data_I
_chemical_name_common 'CAKXET_clean'
_cell_length_a 7.9809
_cell_length_b 9.7465
_cell_length_c 15.9265
_cell_angle_alpha 90
_cell_angle_beta 90
_cell_angle_gamma 96.2159
_space_group_name_H-M_alt 'P 1'
_space_group_name_Hall 'P 1'
loop_
    _symmetry_equiv_pos_as_xyz
    x,y,z
loop_
    _atom_site_label
    _atom_site_type_symbol
    _atom_site_fract_x
    _atom_site_fract_y
    _atom_site_fract_z
    _atom_site_occupancy
    Sm1      Sm       0.91981    0.13510    0.32673    1.000
    Sm2      Sm       0.58019    0.36490    0.82673    1.000
    Sm3      Sm       0.08019    0.86490    0.67327    1.000
    Sm4      Sm       0.41981    0.63510    0.17327    1.000
    H1       H        0.96860    0.68496    0.38791    1.000
    H2       H        0.61737    0.34707    0.25147    1.000
    H3       H        0.53140    0.81504    0.88791    1.000
    H4       H        0.88263    0.15293    0.75147    1.000
    H5       H        0.03140    0.31504    0.61209    1.000
    H6       H        0.38263    0.65293    0.74853    1.000
    H7       H        0.46860    0.18496    0.11209    1.000
    H8       H        0.11737    0.84707    0.24853    1.000
    C1       C        0.91350    0.47630    0.36830    1.000
    C2       C        0.74270    0.79630    0.28510    1.000
    C3       C        0.89510    0.61560    0.35910    1.000
    C4       C        0.76830    0.64880    0.30680    1.000
    C5       C        0.05670    0.42530    0.41830    1.000
    C6       C        0.68890    0.42050    0.28120    1.000
    C7       C        0.91060    0.00920    0.51590    1.000
    C8       C        0.58650    0.02370    0.86830    1.000
    C9       C        0.75730    0.70370    0.78510    1.000
    C10      C        0.60490    0.88440    0.85910    1.000
    C11      C        0.73170    0.85120    0.80680    1.000
    C12      C        0.44330    0.07470    0.91830    1.000
    C13      C        0.81110    0.07950    0.78120    1.000
    C14      C        0.58940    0.49080    0.01590    1.000
    C15      C        0.08650    0.52370    0.63170    1.000
    C16      C        0.25730    0.20370    0.71490    1.000
    C17      C        0.10490    0.38440    0.64090    1.000
    C18      C        0.23170    0.35120    0.69320    1.000
    C19      C        0.94330    0.57470    0.58170    1.000
    C20      C        0.31110    0.57950    0.71880    1.000
    C21      C        0.08940    0.99080    0.48410    1.000
    C22      C        0.41350    0.97630    0.13170    1.000
    C23      C        0.24270    0.29630    0.21490    1.000
    C24      C        0.39510    0.11560    0.14090    1.000
    C25      C        0.26830    0.14880    0.19320    1.000
    C26      C        0.55670    0.92530    0.08170    1.000
    C27      C        0.18890    0.92050    0.21880    1.000
    C28      C        0.41060    0.50920    0.98410    1.000
    N1       N        0.81050    0.37900    0.32940    1.000
    N2       N        0.66250    0.55150    0.26840    1.000
    N3       N        0.68950    0.12100    0.82940    1.000
    N4       N        0.83750    0.94850    0.76840    1.000
    N5       N        0.18950    0.62100    0.67060    1.000
    N6       N        0.33750    0.44850    0.73160    1.000
    N7       N        0.31050    0.87900    0.17060    1.000
    N8       N        0.16250    0.05150    0.23160    1.000
    O1       O        0.04910    0.29640    0.42855    1.000
    O2       O        0.85000    0.88890    0.31136    1.000
    O3       O        0.81220    0.05650    0.46447    1.000
    O4       O        0.61760    0.81340    0.24057    1.000
    O5       O        0.87520    0.97530    0.59008    1.000
    O6       O        0.17110    0.51280    0.44246    1.000
    O7       O        0.45090    0.20360    0.92855    1.000
    O8       O        0.65000    0.61110    0.81136    1.000
    O9       O        0.68780    0.44350    0.96447    1.000
    O10      O        0.88240    0.68660    0.74057    1.000
    O11      O        0.62480    0.52470    0.09008    1.000
    O12      O        0.32890    0.98720    0.94246    1.000
    O13      O        0.95090    0.70360    0.57145    1.000
    O14      O        0.15000    0.11110    0.68864    1.000
    O15      O        0.18780    0.94350    0.53553    1.000
    O16      O        0.38240    0.18660    0.75943    1.000
    O17      O        0.12480    0.02470    0.40992    1.000
    O18      O        0.82890    0.48720    0.55754    1.000
    O19      O        0.54910    0.79640    0.07145    1.000
    O20      O        0.35000    0.38890    0.18864    1.000
    O21      O        0.31220    0.55650    0.03553    1.000
    O22      O        0.11760    0.31340    0.25943    1.000
    O23      O        0.37520    0.47530    0.90992    1.000
    O24      O        0.67110    0.01280    0.05754    1.000
