# CIF file generated by openbabel 3.1.0, see https://openbabel.org
data_I
_chemical_name_common 'image0'
_cell_length_a 9.9939
_cell_length_b 10.6523
_cell_length_c 10.9658
_cell_angle_alpha 80.558
_cell_angle_beta 72.257
_cell_angle_gamma 74.541
_space_group_name_H-M_alt 'P 1'
_space_group_name_Hall 'P 1'
loop_
    _symmetry_equiv_pos_as_xyz
    x,y,z
loop_
    _atom_site_label
    _atom_site_type_symbol
    _atom_site_fract_x
    _atom_site_fract_y
    _atom_site_fract_z
    _atom_site_occupancy
    Eu1      Eu       0.82491    0.30560    0.46566    1.000
    Zn1      Zn       0.70787    0.13223    0.88350    1.000
    N1       N        0.86870    0.19780    0.92500    1.000
    N2       N        0.52280    0.29510    0.92990    1.000
    C1       C        0.77690    0.07530    0.12570    1.000
    C2       C        0.88880    0.14830    0.04120    1.000
    C3       C        0.00680    0.16150    0.07620    1.000
    C4       C        0.10590    0.22450    0.98710    1.000
    H1       H        0.18900    0.22500    0.00600    1.000
    C5       C        0.08410    0.27520    0.86860    1.000
    H2       H        0.14600    0.32500    0.80600    1.000
    C6       C        0.96330    0.26040    0.84130    1.000
    H3       H        0.94200    0.29400    0.76600    1.000
    C7       C        0.02960    0.11570    0.20770    1.000
    C8       C        0.59470    0.33090    0.69990    1.000
    C9       C        0.48560    0.36380    0.82580    1.000
    C10      C        0.36060    0.46270    0.83490    1.000
    C11      C        0.27510    0.49300    0.95740    1.000
    H4       H        0.19600    0.56100    0.96300    1.000
    C12      C        0.31490    0.42570    0.06470    1.000
    H5       H        0.26100    0.43700    0.14700    1.000
    C13      C        0.43900    0.32680    0.04680    1.000
    H6       H        0.46800    0.28100    0.11600    1.000
    C14      C        0.31190    0.53860    0.71980    1.000
    C15      C        0.05960    0.47870    0.43810    1.000
    O1       O        0.68560    0.06030    0.07393    1.000
    O2       O        0.78270    0.03380    0.23664    1.000
    O3       O        0.97270    0.19714    0.28870    1.000
    O4       O        0.10940    0.00632    0.22630    1.000
    O5       O        0.70790    0.24081    0.70312    1.000
    O6       O        0.57662    0.39473    0.59858    1.000
    O7       O        0.33090    0.65233    0.68727    1.000
    O8       O        0.24440    0.48890    0.66786    1.000
    O9       O        0.04350    0.39274    0.38287    1.000
    O10      O        0.16210    0.53510    0.40385    1.000
    Eu2      Eu       0.17509    0.69440    0.53434    1.000
    Zn2      Zn       0.29213    0.86777    0.11650    1.000
    N3       N        0.13130    0.80220    0.07500    1.000
    N4       N        0.47720    0.70490    0.07010    1.000
    C16      C        0.22310    0.92470    0.87430    1.000
    C17      C        0.11120    0.85170    0.95880    1.000
    C18      C        0.99320    0.83850    0.92380    1.000
    C19      C        0.89410    0.77550    0.01290    1.000
    H7       H        0.81100    0.77500    0.99400    1.000
    C20      C        0.91590    0.72480    0.13140    1.000
    H8       H        0.85400    0.67500    0.19400    1.000
    C21      C        0.03670    0.73960    0.15870    1.000
    H9       H        0.05800    0.70600    0.23400    1.000
    C22      C        0.97040    0.88430    0.79230    1.000
    C23      C        0.40530    0.66910    0.30010    1.000
    C24      C        0.51440    0.63620    0.17420    1.000
    C25      C        0.63940    0.53730    0.16510    1.000
    C26      C        0.72490    0.50700    0.04260    1.000
    H10      H        0.80400    0.43900    0.03700    1.000
    C27      C        0.68510    0.57430    0.93530    1.000
    H11      H        0.73900    0.56300    0.85300    1.000
    C28      C        0.56100    0.67320    0.95320    1.000
    H12      H        0.53200    0.71900    0.88400    1.000
    C29      C        0.68810    0.46140    0.28020    1.000
    C30      C        0.94040    0.52130    0.56190    1.000
    O11      O        0.31440    0.93970    0.92607    1.000
    O12      O        0.21730    0.96620    0.76336    1.000
    O13      O        0.02730    0.80286    0.71130    1.000
    O14      O        0.89060    0.99368    0.77370    1.000
    O15      O        0.29210    0.75919    0.29688    1.000
    O16      O        0.42338    0.60527    0.40142    1.000
    O17      O        0.66910    0.34767    0.31273    1.000
    O18      O        0.75560    0.51110    0.33214    1.000
    O19      O        0.95650    0.60726    0.61713    1.000
    O20      O        0.83790    0.46490    0.59615    1.000
