# CIF file generated by openbabel 3.1.0, see https://openbabel.org
data_I
_chemical_name_common 'NIGGIU_clean'
_cell_length_a 10.8308
_cell_length_b 10.8308
_cell_length_c 19.557
_cell_angle_alpha 75.6925
_cell_angle_beta 75.6925
_cell_angle_gamma 64.7067
_space_group_name_H-M_alt 'P 1'
_space_group_name_Hall 'P 1'
loop_
    _symmetry_equiv_pos_as_xyz
    x,y,z
loop_
    _atom_site_label
    _atom_site_type_symbol
    _atom_site_fract_x
    _atom_site_fract_y
    _atom_site_fract_z
    _atom_site_occupancy
    Yb1      Yb       0.59575    0.25461    0.08293    1.000
    Yb2      Yb       0.74539    0.40425    0.41707    1.000
    Yb3      Yb       0.40425    0.74539    0.91707    1.000
    Yb4      Yb       0.25461    0.59575    0.58293    1.000
    H1       H        0.51400    0.34400    0.32700    1.000
    H2       H        0.22300    0.31300    0.28400    1.000
    H3       H        0.17400    0.40000    0.47100    1.000
    H4       H        0.65600    0.48600    0.17300    1.000
    H5       H        0.68700    0.77700    0.21600    1.000
    H6       H        0.60000    0.82600    0.02900    1.000
    H7       H        0.48600    0.65600    0.67300    1.000
    H8       H        0.77700    0.68700    0.71600    1.000
    H9       H        0.82600    0.60000    0.52900    1.000
    H10      H        0.34400    0.51400    0.82700    1.000
    H11      H        0.31300    0.22300    0.78400    1.000
    H12      H        0.40000    0.17400    0.97100    1.000
    C1       C        0.45400    0.29500    0.21720    1.000
    C2       C        0.37430    0.32070    0.28920    1.000
    C3       C        0.43020    0.34720    0.33830    1.000
    C4       C        0.35320    0.37740    0.40560    1.000
    C5       C        0.22060    0.38220    0.42270    1.000
    C6       C        0.16360    0.35520    0.37480    1.000
    C7       C        0.24110    0.32590    0.30810    1.000
    C8       C        0.01700    0.36620    0.39270    1.000
    C9       C        0.41530    0.40830    0.45670    1.000
    C10      C        0.70500    0.54600    0.28280    1.000
    C11      C        0.67930    0.62570    0.21080    1.000
    C12      C        0.65280    0.56980    0.16170    1.000
    C13      C        0.62260    0.64680    0.09440    1.000
    C14      C        0.61780    0.77940    0.07730    1.000
    C15      C        0.64480    0.83640    0.12520    1.000
    C16      C        0.67410    0.75890    0.19190    1.000
    C17      C        0.63380    0.98300    0.10730    1.000
    C18      C        0.59170    0.58470    0.04330    1.000
    C19      C        0.54600    0.70500    0.78280    1.000
    C20      C        0.62570    0.67930    0.71080    1.000
    C21      C        0.56980    0.65280    0.66170    1.000
    C22      C        0.64680    0.62260    0.59440    1.000
    C23      C        0.77940    0.61780    0.57730    1.000
    C24      C        0.83640    0.64480    0.62520    1.000
    C25      C        0.75890    0.67410    0.69190    1.000
    C26      C        0.98300    0.63380    0.60730    1.000
    C27      C        0.58470    0.59170    0.54330    1.000
    C28      C        0.29500    0.45400    0.71720    1.000
    C29      C        0.32070    0.37430    0.78920    1.000
    C30      C        0.34720    0.43020    0.83830    1.000
    C31      C        0.37740    0.35320    0.90560    1.000
    C32      C        0.38220    0.22060    0.92270    1.000
    C33      C        0.35520    0.16360    0.87480    1.000
    C34      C        0.32590    0.24110    0.80810    1.000
    C35      C        0.36620    0.01700    0.89270    1.000
    C36      C        0.40830    0.41530    0.95670    1.000
    O1       O        0.57890    0.28110    0.20290    1.000
    O2       O        0.39650    0.28950    0.17020    1.000
    O3       O        0.97110    0.32790    0.35120    1.000
    O4       O        0.93980    0.41120    0.44660    1.000
    O5       O        0.52860    0.42140    0.43320    1.000
    O6       O        0.34990    0.41970    0.51820    1.000
    O7       O        0.71890    0.42110    0.29710    1.000
    O8       O        0.71050    0.60350    0.32980    1.000
    O9       O        0.67210    0.02890    0.14880    1.000
    O10      O        0.58880    0.06020    0.05340    1.000
    O11      O        0.57860    0.47140    0.06680    1.000
    O12      O        0.58030    0.65010    0.98180    1.000
    O13      O        0.42110    0.71890    0.79710    1.000
    O14      O        0.60350    0.71050    0.82980    1.000
    O15      O        0.02890    0.67210    0.64880    1.000
    O16      O        0.06020    0.58880    0.55340    1.000
    O17      O        0.47140    0.57860    0.56680    1.000
    O18      O        0.65010    0.58030    0.48180    1.000
    O19      O        0.28110    0.57890    0.70290    1.000
    O20      O        0.28950    0.39650    0.67020    1.000
    O21      O        0.32790    0.97110    0.85120    1.000
    O22      O        0.41120    0.93980    0.94660    1.000
    O23      O        0.42140    0.52860    0.93320    1.000
    O24      O        0.41970    0.34990    0.01820    1.000
