# CIF file generated by openbabel 3.1.0, see https://openbabel.org
data_I
_chemical_name_common 'image0'
_cell_length_a 10.447
_cell_length_b 12.349
_cell_length_c 10.225
_cell_angle_alpha 90
_cell_angle_beta 90
_cell_angle_gamma 90
_space_group_name_H-M_alt 'P 1'
_space_group_name_Hall 'P 1'
loop_
    _symmetry_equiv_pos_as_xyz
    x,y,z
loop_
    _atom_site_label
    _atom_site_type_symbol
    _atom_site_fract_x
    _atom_site_fract_y
    _atom_site_fract_z
    _atom_site_occupancy
    Zn1      Zn       0.98122    0.86680    0.81550    1.000
    P1       P        0.00220    0.98346    0.55490    1.000
    P2       P        0.73260    0.74451    0.72460    1.000
    O1       O        0.81280    0.80260    0.82700    1.000
    O2       O        0.59080    0.75250    0.76080    1.000
    O3       O        0.97250    0.99230    0.70090    1.000
    O4       O        0.96300    0.08860    0.48790    1.000
    O5       O        0.15220    0.97620    0.53710    1.000
    O6       O        0.94070    0.88390    0.49730    1.000
    O7       O        0.77410    0.62660    0.70860    1.000
    O8       O        0.74510    0.80240    0.58920    1.000
    H1       H        0.20200    0.93700    0.63800    1.000
    Zn2      Zn       0.01878    0.13320    0.31550    1.000
    P3       P        0.99780    0.01654    0.05490    1.000
    P4       P        0.26740    0.25549    0.22460    1.000
    O9       O        0.18720    0.19740    0.32700    1.000
    O10      O        0.40920    0.24750    0.26080    1.000
    O11      O        0.02750    0.00770    0.20090    1.000
    O12      O        0.03700    0.91140    0.98790    1.000
    O13      O        0.84780    0.02380    0.03710    1.000
    O14      O        0.05930    0.11610    0.99730    1.000
    O15      O        0.22590    0.37340    0.20860    1.000
    O16      O        0.25490    0.19760    0.08920    1.000
    H2       H        0.79800    0.06300    0.13800    1.000
    Zn3      Zn       0.48122    0.63320    0.81550    1.000
    P5       P        0.50220    0.51654    0.55490    1.000
    P6       P        0.23260    0.75549    0.72460    1.000
    O17      O        0.31280    0.69740    0.82700    1.000
    O18      O        0.09080    0.74750    0.76080    1.000
    O19      O        0.47250    0.50770    0.70090    1.000
    O20      O        0.46300    0.41140    0.48790    1.000
    O21      O        0.65220    0.52380    0.53710    1.000
    O22      O        0.44070    0.61610    0.49730    1.000
    O23      O        0.27410    0.87340    0.70860    1.000
    O24      O        0.24510    0.69760    0.58920    1.000
    H3       H        0.70200    0.56300    0.63800    1.000
    Zn4      Zn       0.51878    0.36680    0.31550    1.000
    P7       P        0.49780    0.48346    0.05490    1.000
    P8       P        0.76740    0.24451    0.22460    1.000
    O25      O        0.68720    0.30260    0.32700    1.000
    O26      O        0.90920    0.25250    0.26080    1.000
    O27      O        0.52750    0.49230    0.20090    1.000
    O28      O        0.53700    0.58860    0.98790    1.000
    O29      O        0.34780    0.47620    0.03710    1.000
    O30      O        0.55930    0.38390    0.99730    1.000
    O31      O        0.72590    0.12660    0.20860    1.000
    O32      O        0.75490    0.30240    0.08920    1.000
    H4       H        0.29800    0.43700    0.13800    1.000
