# CIF file generated by openbabel 3.1.0, see https://openbabel.org
data_I
_chemical_name_common 'image0'
_cell_length_a 10.64
_cell_length_b 11.239
_cell_length_c 15.232
_cell_angle_alpha 99.351
_cell_angle_beta 99.511
_cell_angle_gamma 92.482
_space_group_name_H-M_alt 'P 1'
_space_group_name_Hall 'P 1'
loop_
    _symmetry_equiv_pos_as_xyz
    x,y,z
loop_
    _atom_site_label
    _atom_site_type_symbol
    _atom_site_fract_x
    _atom_site_fract_y
    _atom_site_fract_z
    _atom_site_occupancy
    Tb1      Tb       0.60297    0.23768    0.13181    1.000
    Tb2      Tb       0.70995    0.30690    0.40564    1.000
    O1       O        0.63200    0.44530    0.19300    1.000
    O2       O        0.64420    0.47930    0.34210    1.000
    O3       O        0.70370    0.38220    0.56020    1.000
    O4       O        0.69070    0.10280    0.34240    1.000
    O5       O        0.66230    0.06530    0.19190    1.000
    O6       O        0.81620    0.29660    0.28160    1.000
    C1       C        0.64230    0.51410    0.26910    1.000
    O7       O        0.48370    0.30210    0.39780    1.000
    C2       C        0.43250    0.27520    0.31480    1.000
    O8       O        0.49950    0.25290    0.25460    1.000
    C3       C        0.29010    0.27320    0.29140    1.000
    C4       C        0.22910    0.23980    0.20220    1.000
    H1       H        0.27800    0.21710    0.15770    1.000
    C5       C        0.09770    0.23930    0.17730    1.000
    C6       C        0.21480    0.30710    0.35760    1.000
    C7       C        0.08600    0.30810    0.33330    1.000
    H2       H        0.03770    0.33340    0.37760    1.000
    O9       O        0.26760    0.34060    0.44690    1.000
    H3       H        0.34510    0.33600    0.45320    1.000
    C8       C        0.67810    0.28120    0.58220    1.000
    C9       C        0.67510    0.27360    0.67840    1.000
    C10      C        0.69830    0.37910    0.74300    1.000
    H4       H        0.71580    0.45260    0.72540    1.000
    C11      C        0.69560    0.37520    0.83300    1.000
    C12      C        0.67050    0.26450    0.85960    1.000
    C13      C        0.64990    0.15930    0.79530    1.000
    H5       H        0.63450    0.08550    0.81320    1.000
    C14      C        0.65180    0.16290    0.70590    1.000
    O10      O        0.63080    0.05420    0.64650    1.000
    H6       H        0.62380    0.06710    0.59450    1.000
    C15      C        0.65470    0.25980    0.95420    1.000
    O11      O        0.72020    0.48150    0.89410    1.000
    H7       H        0.73630    0.46630    0.94540    1.000
    O12      O        0.65590    0.18660    0.52310    1.000
    C16      C        0.88160    0.26950    0.22140    1.000
    C17      C        0.02370    0.27250    0.24400    1.000
    O13      O        0.04500    0.20460    0.08810    1.000
    H8       H        0.96730    0.19290    0.08320    1.000
    O14      O        0.82950    0.23840    0.13920    1.000
    C18      C        0.67620    0.03080    0.26730    1.000
    C19      C        0.67380    0.90020    0.27050    1.000
    C20      C        0.65970    0.81720    0.18860    1.000
    H9       H        0.65840    0.84640    0.13480    1.000
    C21      C        0.64800    0.69450    0.18650    1.000
    C22      C        0.67970    0.85450    0.35080    1.000
    O15      O        0.69290    0.92570    0.43300    1.000
    H10      H        0.65110    0.98480    0.42900    1.000
    C23      C        0.66770    0.73000    0.34850    1.000
    H11      H        0.67010    0.70110    0.40250    1.000
    C24      C        0.65250    0.64740    0.26830    1.000
    O16      O        0.63530    0.61940    0.10490    1.000
    H12      H        0.63550    0.54900    0.11280    1.000
    O17      O        0.67500    0.35670    0.01260    1.000
    O18      O        0.61960    0.16290    0.97700    1.000
    Tb3      Tb       0.39703    0.76232    0.86819    1.000
    Tb4      Tb       0.29005    0.69310    0.59436    1.000
    O19      O        0.36800    0.55470    0.80700    1.000
    O20      O        0.35580    0.52070    0.65790    1.000
    O21      O        0.29630    0.61780    0.43980    1.000
    O22      O        0.30930    0.89720    0.65760    1.000
    O23      O        0.33770    0.93470    0.80810    1.000
    O24      O        0.18380    0.70340    0.71840    1.000
    C25      C        0.35770    0.48590    0.73090    1.000
    O25      O        0.51630    0.69790    0.60220    1.000
    C26      C        0.56750    0.72480    0.68520    1.000
    O26      O        0.50050    0.74710    0.74540    1.000
    C27      C        0.70990    0.72680    0.70860    1.000
    C28      C        0.77090    0.76020    0.79780    1.000
    H13      H        0.72200    0.78290    0.84230    1.000
    C29      C        0.90230    0.76070    0.82270    1.000
    C30      C        0.78520    0.69290    0.64240    1.000
    C31      C        0.91400    0.69190    0.66670    1.000
    H14      H        0.96230    0.66660    0.62240    1.000
    O27      O        0.73240    0.65940    0.55310    1.000
    H15      H        0.65490    0.66400    0.54680    1.000
    C32      C        0.32190    0.71880    0.41780    1.000
    C33      C        0.32490    0.72640    0.32160    1.000
    C34      C        0.30170    0.62090    0.25700    1.000
    H16      H        0.28420    0.54740    0.27460    1.000
    C35      C        0.30440    0.62480    0.16700    1.000
    C36      C        0.32950    0.73550    0.14040    1.000
    C37      C        0.35010    0.84070    0.20470    1.000
    H17      H        0.36550    0.91450    0.18680    1.000
    C38      C        0.34820    0.83710    0.29410    1.000
    O28      O        0.36920    0.94580    0.35350    1.000
    H18      H        0.37620    0.93290    0.40550    1.000
    C39      C        0.34530    0.74020    0.04580    1.000
    O29      O        0.27980    0.51850    0.10590    1.000
    H19      H        0.26370    0.53370    0.05460    1.000
    O30      O        0.34410    0.81340    0.47690    1.000
    C40      C        0.11840    0.73050    0.77860    1.000
    C41      C        0.97630    0.72750    0.75600    1.000
    O31      O        0.95500    0.79540    0.91190    1.000
    H20      H        0.03270    0.80710    0.91680    1.000
    O32      O        0.17050    0.76160    0.86080    1.000
    C42      C        0.32380    0.96920    0.73270    1.000
    C43      C        0.32620    0.09980    0.72950    1.000
    C44      C        0.34030    0.18280    0.81140    1.000
    H21      H        0.34160    0.15360    0.86520    1.000
    C45      C        0.35200    0.30550    0.81350    1.000
    C46      C        0.32030    0.14550    0.64920    1.000
    O33      O        0.30710    0.07430    0.56700    1.000
    H22      H        0.34890    0.01520    0.57100    1.000
    C47      C        0.33230    0.27000    0.65150    1.000
    H23      H        0.32990    0.29890    0.59750    1.000
    C48      C        0.34750    0.35260    0.73170    1.000
    O34      O        0.36470    0.38060    0.89510    1.000
    H24      H        0.36450    0.45100    0.88720    1.000
    O35      O        0.32500    0.64330    0.98740    1.000
    O36      O        0.38040    0.83710    0.02300    1.000
