# CIF file generated by openbabel 3.1.0, see https://openbabel.org
data_I
_chemical_name_common 'image0'
_cell_length_a 9.7549
_cell_length_b 13.1891
_cell_length_c 10.508
_cell_angle_alpha 90
_cell_angle_beta 109.603
_cell_angle_gamma 90
_space_group_name_H-M_alt 'P 1'
_space_group_name_Hall 'P 1'
loop_
    _symmetry_equiv_pos_as_xyz
    x,y,z
loop_
    _atom_site_label
    _atom_site_type_symbol
    _atom_site_fract_x
    _atom_site_fract_y
    _atom_site_fract_z
    _atom_site_occupancy
    C1       C        0.45660    0.64380    0.65300    1.000
    C2       C        0.31110    0.66650    0.59840    1.000
    H1       H        0.27870    0.70800    0.52010    1.000
    C3       C        0.21100    0.63100    0.65350    1.000
    C4       C        0.26450    0.57130    0.77460    1.000
    H2       H        0.19770    0.54610    0.81520    1.000
    C5       C        0.40840    0.55000    0.83230    1.000
    C6       C        0.50700    0.58940    0.77510    1.000
    H3       H        0.60850    0.57950    0.81870    1.000
    C7       C        0.56430    0.68370    0.59350    1.000
    C8       C        0.04910    0.65090    0.59880    1.000
    C9       C        0.40190    0.38770    0.95120    1.000
    C10      C        0.45320    0.48670    0.95560    1.000
    C11      C        0.53800    0.52830    0.07710    1.000
    H4       H        0.57350    0.59560    0.07970    1.000
    C12      C        0.57170    0.47190    0.19600    1.000
    C13      C        0.51940    0.37380    0.19150    1.000
    H5       H        0.54070    0.33490    0.27200    1.000
    C14      C        0.43370    0.33200    0.06560    1.000
    H6       H        0.39840    0.26450    0.06160    1.000
    C15      C        0.31090    0.33750    0.82040    1.000
    C16      C        0.66030    0.51820    0.33010    1.000
    C17      C        0.76450    0.95160    0.63230    1.000
    H7       H        0.66320    0.94260    0.61530    1.000
    C18      C        0.99120    0.05310    0.73100    1.000
    H8       H        0.01900    0.11580    0.78340    1.000
    H9       H        0.00840    0.06060    0.64480    1.000
    H10      H        0.04960    0.99670    0.78190    1.000
    C19      C        0.75330    0.10560    0.76120    1.000
    H11      H        0.81930    0.15930    0.81050    1.000
    H12      H        0.71330    0.07000    0.82280    1.000
    H13      H        0.67370    0.13570    0.68710    1.000
    Cd1      Cd       0.75852    0.74447    0.45889    1.000
    Cd2      Cd       0.79293    0.49418    0.65014    1.000
    N1       N        0.83500    0.03240    0.70510    1.000
    O1       O        0.52360    0.74140    0.49500    1.000
    O2       O        0.69540    0.65250    0.63830    1.000
    O3       O        0.00320    0.72500    0.51650    1.000
    O4       O        0.97090    0.59480    0.63760    1.000
    O5       O        0.36150    0.33990    0.72360    1.000
    O6       O        0.19460    0.29910    0.81450    1.000
    O7       O        0.69880    0.60830    0.32570    1.000
    O8       O        0.68390    0.46410    0.43260    1.000
    O9       O        0.83270    0.88960    0.58810    1.000
    C20      C        0.89700    0.94600    0.63400    1.000
    H14      H        0.98160    0.93820    0.60880    1.000
    C21      C        0.74700    0.03700    0.74500    1.000
    H15      H        0.75770    0.09390    0.80760    1.000
    H16      H        0.72300    0.97540    0.78470    1.000
    H17      H        0.66870    0.05220    0.65990    1.000
    C22      C        0.02000    0.06800    0.81600    1.000
    H18      H        0.99180    0.11490    0.87540    1.000
    H19      H        0.07390    0.10520    0.76720    1.000
    H20      H        0.08200    0.01450    0.87060    1.000
    N2       N        0.88700    0.02190    0.71700    1.000
    O10      O        0.79000    0.88630    0.59000    1.000
    C23      C        0.54340    0.14380    0.34700    1.000
    C24      C        0.68890    0.16650    0.40160    1.000
    H21      H        0.72130    0.20800    0.47990    1.000
    C25      C        0.78900    0.13100    0.34650    1.000
    C26      C        0.73550    0.07130    0.22540    1.000
    H22      H        0.80230    0.04610    0.18480    1.000
    C27      C        0.59160    0.05000    0.16770    1.000
    C28      C        0.49300    0.08940    0.22490    1.000
    H23      H        0.39150    0.07950    0.18130    1.000
    C29      C        0.43570    0.18370    0.40650    1.000
    C30      C        0.95090    0.15090    0.40120    1.000
    C31      C        0.59810    0.88770    0.04880    1.000
    C32      C        0.54680    0.98670    0.04440    1.000
    C33      C        0.46200    0.02830    0.92290    1.000
    H24      H        0.42650    0.09560    0.92030    1.000
    C34      C        0.42830    0.97190    0.80400    1.000
    C35      C        0.48060    0.87380    0.80850    1.000
    H25      H        0.45930    0.83490    0.72800    1.000
    C36      C        0.56630    0.83200    0.93440    1.000
    H26      H        0.60160    0.76450    0.93840    1.000
    C37      C        0.68910    0.83750    0.17960    1.000
    C38      C        0.33970    0.01820    0.66990    1.000
    C39      C        0.23550    0.45160    0.36770    1.000
    H27      H        0.33680    0.44260    0.38470    1.000
    C40      C        0.00880    0.55310    0.26900    1.000
    H28      H        0.98100    0.61580    0.21660    1.000
    H29      H        0.99160    0.56060    0.35520    1.000
    H30      H        0.95040    0.49670    0.21810    1.000
    C41      C        0.24670    0.60560    0.23880    1.000
    H31      H        0.18070    0.65930    0.18950    1.000
    H32      H        0.28670    0.57000    0.17720    1.000
    H33      H        0.32630    0.63570    0.31290    1.000
    Cd3      Cd       0.24148    0.24447    0.54111    1.000
    Cd4      Cd       0.20707    0.99418    0.34986    1.000
    N3       N        0.16500    0.53240    0.29490    1.000
    O11      O        0.47640    0.24140    0.50500    1.000
    O12      O        0.30460    0.15250    0.36170    1.000
    O13      O        0.99680    0.22500    0.48350    1.000
    O14      O        0.02910    0.09480    0.36240    1.000
    O15      O        0.63850    0.83990    0.27640    1.000
    O16      O        0.80540    0.79910    0.18550    1.000
    O17      O        0.30120    0.10830    0.67430    1.000
    O18      O        0.31610    0.96410    0.56740    1.000
    O19      O        0.16730    0.38960    0.41190    1.000
    C42      C        0.10300    0.44600    0.36600    1.000
    H34      H        0.01840    0.43820    0.39120    1.000
    C43      C        0.25300    0.53700    0.25500    1.000
    H35      H        0.24230    0.59390    0.19240    1.000
    H36      H        0.27700    0.47540    0.21530    1.000
    H37      H        0.33130    0.55220    0.34010    1.000
    C44      C        0.98000    0.56800    0.18400    1.000
    H38      H        0.00820    0.61490    0.12460    1.000
    H39      H        0.92610    0.60520    0.23280    1.000
    H40      H        0.91800    0.51450    0.12940    1.000
    N4       N        0.11300    0.52190    0.28300    1.000
    O20      O        0.21000    0.38630    0.41000    1.000
