# CIF file generated by openbabel 3.1.0, see https://openbabel.org
data_I
_chemical_name_common 'image0'
_cell_length_a 22.7591
_cell_length_b 11.1312
_cell_length_c 11.681
_cell_angle_alpha 90
_cell_angle_beta 111.652
_cell_angle_gamma 90
_space_group_name_H-M_alt 'P 1'
_space_group_name_Hall 'P 1'
loop_
    _symmetry_equiv_pos_as_xyz
    x,y,z
loop_
    _atom_site_label
    _atom_site_type_symbol
    _atom_site_fract_x
    _atom_site_fract_y
    _atom_site_fract_z
    _atom_site_occupancy
    C1       C        0.20844    0.88927    0.98884    1.000
    H1       H        0.20640    0.91550    0.06290    1.000
    C2       C        0.16964    0.79575    0.92758    1.000
    H2       H        0.14230    0.76030    0.96020    1.000
    C3       C        0.17189    0.75510    0.81661    1.000
    C4       C        0.21248    0.81383    0.77041    1.000
    C5       C        0.24975    0.90739    0.83856    1.000
    H3       H        0.27660    0.94630    0.80690    1.000
    C6       C        0.21758    0.77965    0.64971    1.000
    C7       C        0.13062    0.65011    0.75196    1.000
    C8       C        0.42160    0.19720    0.31140    1.000
    H4       H        0.42790    0.11680    0.33410    1.000
    C9       C        0.45550    0.28300    0.39580    1.000
    H5       H        0.48380    0.25990    0.47300    1.000
    C10      C        0.44677    0.40370    0.36420    1.000
    C11      C        0.40472    0.42980    0.24950    1.000
    H6       H        0.39780    0.50930    0.22350    1.000
    C12      C        0.37255    0.33950    0.17200    1.000
    H7       H        0.34320    0.36090    0.09520    1.000
    C13      C        0.47875    0.50550    0.44480    1.000
    N1       N        0.24905    0.94427    0.94659    1.000
    N2       N        0.38056    0.22387    0.19960    1.000
    O1       O        0.07934    0.67415    0.66745    1.000
    O2       O        0.14952    0.54802    0.79076    1.000
    O3       O        0.19571    0.68026    0.60498    1.000
    O4       O        0.24219    0.85502    0.60231    1.000
    Mn1      Mn       0.32021    0.08383    0.06281    1.000
    H8       H        0.47390    0.59200    0.43100    1.000
    C14      C        0.70844    0.38927    0.98884    1.000
    H9       H        0.70640    0.41550    0.06290    1.000
    C15      C        0.66964    0.29575    0.92758    1.000
    H10      H        0.64230    0.26030    0.96020    1.000
    C16      C        0.67189    0.25510    0.81661    1.000
    C17      C        0.71248    0.31383    0.77041    1.000
    C18      C        0.74975    0.40739    0.83856    1.000
    H11      H        0.77660    0.44630    0.80690    1.000
    C19      C        0.71758    0.27965    0.64971    1.000
    C20      C        0.63062    0.15011    0.75196    1.000
    C21      C        0.92160    0.69720    0.31140    1.000
    H12      H        0.92790    0.61680    0.33410    1.000
    C22      C        0.95550    0.78300    0.39580    1.000
    H13      H        0.98380    0.75990    0.47300    1.000
    C23      C        0.94677    0.90370    0.36420    1.000
    C24      C        0.90472    0.92980    0.24950    1.000
    H14      H        0.89780    0.00930    0.22350    1.000
    C25      C        0.87255    0.83950    0.17200    1.000
    H15      H        0.84320    0.86090    0.09520    1.000
    C26      C        0.97875    0.00550    0.44480    1.000
    N3       N        0.74905    0.44427    0.94659    1.000
    N4       N        0.88056    0.72387    0.19960    1.000
    O5       O        0.57934    0.17415    0.66745    1.000
    O6       O        0.64952    0.04802    0.79076    1.000
    O7       O        0.69571    0.18026    0.60498    1.000
    O8       O        0.74219    0.35502    0.60231    1.000
    Mn2      Mn       0.82021    0.58383    0.06281    1.000
    H16      H        0.97390    0.09200    0.43100    1.000
    C27      C        0.79156    0.88927    0.51116    1.000
    H17      H        0.79360    0.91550    0.43710    1.000
    C28      C        0.83036    0.79575    0.57242    1.000
    H18      H        0.85770    0.76030    0.53980    1.000
    C29      C        0.82811    0.75510    0.68339    1.000
    C30      C        0.78752    0.81383    0.72959    1.000
    C31      C        0.75025    0.90739    0.66144    1.000
    H19      H        0.72340    0.94630    0.69310    1.000
    C32      C        0.78242    0.77965    0.85029    1.000
    C33      C        0.86938    0.65011    0.74804    1.000
    C34      C        0.57840    0.19720    0.18860    1.000
    H20      H        0.57210    0.11680    0.16590    1.000
    C35      C        0.54450    0.28300    0.10420    1.000
    H21      H        0.51620    0.25990    0.02700    1.000
    C36      C        0.55323    0.40370    0.13580    1.000
    C37      C        0.59528    0.42980    0.25050    1.000
    H22      H        0.60220    0.50930    0.27650    1.000
    C38      C        0.62745    0.33950    0.32800    1.000
    H23      H        0.65680    0.36090    0.40480    1.000
    C39      C        0.52125    0.50550    0.05520    1.000
    N5       N        0.75095    0.94427    0.55341    1.000
    N6       N        0.61944    0.22387    0.30040    1.000
    O9       O        0.92066    0.67415    0.83255    1.000
    O10      O        0.85048    0.54802    0.70924    1.000
    O11      O        0.80429    0.68026    0.89502    1.000
    O12      O        0.75781    0.85502    0.89769    1.000
    Mn3      Mn       0.67979    0.08383    0.43719    1.000
    H24      H        0.52610    0.59200    0.06900    1.000
    C40      C        0.29156    0.38927    0.51116    1.000
    H25      H        0.29360    0.41550    0.43710    1.000
    C41      C        0.33036    0.29575    0.57242    1.000
    H26      H        0.35770    0.26030    0.53980    1.000
    C42      C        0.32811    0.25510    0.68339    1.000
    C43      C        0.28752    0.31383    0.72959    1.000
    C44      C        0.25025    0.40739    0.66144    1.000
    H27      H        0.22340    0.44630    0.69310    1.000
    C45      C        0.28242    0.27965    0.85029    1.000
    C46      C        0.36938    0.15011    0.74804    1.000
    C47      C        0.07840    0.69720    0.18860    1.000
    H28      H        0.07210    0.61680    0.16590    1.000
    C48      C        0.04450    0.78300    0.10420    1.000
    H29      H        0.01620    0.75990    0.02700    1.000
    C49      C        0.05323    0.90370    0.13580    1.000
    C50      C        0.09528    0.92980    0.25050    1.000
    H30      H        0.10220    0.00930    0.27650    1.000
    C51      C        0.12745    0.83950    0.32800    1.000
    H31      H        0.15680    0.86090    0.40480    1.000
    C52      C        0.02125    0.00550    0.05520    1.000
    N7       N        0.25095    0.44427    0.55341    1.000
    N8       N        0.11944    0.72387    0.30040    1.000
    O13      O        0.42066    0.17415    0.83255    1.000
    O14      O        0.35048    0.04802    0.70924    1.000
    O15      O        0.30429    0.18026    0.89502    1.000
    O16      O        0.25781    0.35502    0.89769    1.000
    Mn4      Mn       0.17979    0.58383    0.43719    1.000
    H32      H        0.02610    0.09200    0.06900    1.000
    C53      C        0.79156    0.11073    0.01116    1.000
    H33      H        0.79360    0.08450    0.93710    1.000
    C54      C        0.83036    0.20425    0.07242    1.000
    H34      H        0.85770    0.23970    0.03980    1.000
    C55      C        0.82811    0.24490    0.18339    1.000
    C56      C        0.78752    0.18617    0.22959    1.000
    C57      C        0.75025    0.09261    0.16144    1.000
    H35      H        0.72340    0.05370    0.19310    1.000
    C58      C        0.78242    0.22035    0.35029    1.000
    C59      C        0.86938    0.34989    0.24804    1.000
    C60      C        0.57840    0.80280    0.68860    1.000
    H36      H        0.57210    0.88320    0.66590    1.000
    C61      C        0.54450    0.71700    0.60420    1.000
    H37      H        0.51620    0.74010    0.52700    1.000
    C62      C        0.55323    0.59630    0.63580    1.000
    C63      C        0.59528    0.57020    0.75050    1.000
    H38      H        0.60220    0.49070    0.77650    1.000
    C64      C        0.62745    0.66050    0.82800    1.000
    H39      H        0.65680    0.63910    0.90480    1.000
    C65      C        0.52125    0.49450    0.55520    1.000
    N9       N        0.75095    0.05573    0.05341    1.000
    N10      N        0.61944    0.77613    0.80040    1.000
    O17      O        0.92066    0.32585    0.33255    1.000
    O18      O        0.85048    0.45198    0.20924    1.000
    O19      O        0.80429    0.31974    0.39502    1.000
    O20      O        0.75781    0.14498    0.39769    1.000
    Mn5      Mn       0.67979    0.91617    0.93719    1.000
    H40      H        0.52610    0.40800    0.56900    1.000
    C66      C        0.29156    0.61073    0.01116    1.000
    H41      H        0.29360    0.58450    0.93710    1.000
    C67      C        0.33036    0.70425    0.07242    1.000
    H42      H        0.35770    0.73970    0.03980    1.000
    C68      C        0.32811    0.74490    0.18339    1.000
    C69      C        0.28752    0.68617    0.22959    1.000
    C70      C        0.25025    0.59261    0.16144    1.000
    H43      H        0.22340    0.55370    0.19310    1.000
    C71      C        0.28242    0.72035    0.35029    1.000
    C72      C        0.36938    0.84989    0.24804    1.000
    C73      C        0.07840    0.30280    0.68860    1.000
    H44      H        0.07210    0.38320    0.66590    1.000
    C74      C        0.04450    0.21700    0.60420    1.000
    H45      H        0.01620    0.24010    0.52700    1.000
    C75      C        0.05323    0.09630    0.63580    1.000
    C76      C        0.09528    0.07020    0.75050    1.000
    H46      H        0.10220    0.99070    0.77650    1.000
    C77      C        0.12745    0.16050    0.82800    1.000
    H47      H        0.15680    0.13910    0.90480    1.000
    C78      C        0.02125    0.99450    0.55520    1.000
    N11      N        0.25095    0.55573    0.05341    1.000
    N12      N        0.11944    0.27613    0.80040    1.000
    O21      O        0.42066    0.82585    0.33255    1.000
    O22      O        0.35048    0.95198    0.20924    1.000
    O23      O        0.30429    0.81974    0.39502    1.000
    O24      O        0.25781    0.64498    0.39769    1.000
    Mn6      Mn       0.17979    0.41617    0.93719    1.000
    H48      H        0.02610    0.90800    0.56900    1.000
    C79      C        0.20844    0.11073    0.48884    1.000
    H49      H        0.20640    0.08450    0.56290    1.000
    C80      C        0.16964    0.20425    0.42758    1.000
    H50      H        0.14230    0.23970    0.46020    1.000
    C81      C        0.17189    0.24490    0.31661    1.000
    C82      C        0.21248    0.18617    0.27041    1.000
    C83      C        0.24975    0.09261    0.33856    1.000
    H51      H        0.27660    0.05370    0.30690    1.000
    C84      C        0.21758    0.22035    0.14971    1.000
    C85      C        0.13062    0.34989    0.25196    1.000
    C86      C        0.42160    0.80280    0.81140    1.000
    H52      H        0.42790    0.88320    0.83410    1.000
    C87      C        0.45550    0.71700    0.89580    1.000
    H53      H        0.48380    0.74010    0.97300    1.000
    C88      C        0.44677    0.59630    0.86420    1.000
    C89      C        0.40472    0.57020    0.74950    1.000
    H54      H        0.39780    0.49070    0.72350    1.000
    C90      C        0.37255    0.66050    0.67200    1.000
    H55      H        0.34320    0.63910    0.59520    1.000
    C91      C        0.47875    0.49450    0.94480    1.000
    N13      N        0.24905    0.05573    0.44659    1.000
    N14      N        0.38056    0.77613    0.69960    1.000
    O25      O        0.07934    0.32585    0.16745    1.000
    O26      O        0.14952    0.45198    0.29076    1.000
    O27      O        0.19571    0.31974    0.10498    1.000
    O28      O        0.24219    0.14498    0.10231    1.000
    Mn7      Mn       0.32021    0.91617    0.56281    1.000
    H56      H        0.47390    0.40800    0.93100    1.000
    C92      C        0.70844    0.61073    0.48884    1.000
    H57      H        0.70640    0.58450    0.56290    1.000
    C93      C        0.66964    0.70425    0.42758    1.000
    H58      H        0.64230    0.73970    0.46020    1.000
    C94      C        0.67189    0.74490    0.31661    1.000
    C95      C        0.71248    0.68617    0.27041    1.000
    C96      C        0.74975    0.59261    0.33856    1.000
    H59      H        0.77660    0.55370    0.30690    1.000
    C97      C        0.71758    0.72035    0.14971    1.000
    C98      C        0.63062    0.84989    0.25196    1.000
    C99      C        0.92160    0.30280    0.81140    1.000
    H60      H        0.92790    0.38320    0.83410    1.000
    C100     C        0.95550    0.21700    0.89580    1.000
    H61      H        0.98380    0.24010    0.97300    1.000
    C101     C        0.94677    0.09630    0.86420    1.000
    C102     C        0.90472    0.07020    0.74950    1.000
    H62      H        0.89780    0.99070    0.72350    1.000
    C103     C        0.87255    0.16050    0.67200    1.000
    H63      H        0.84320    0.13910    0.59520    1.000
    C104     C        0.97875    0.99450    0.94480    1.000
    N15      N        0.74905    0.55573    0.44659    1.000
    N16      N        0.88056    0.27613    0.69960    1.000
    O29      O        0.57934    0.82585    0.16745    1.000
    O30      O        0.64952    0.95198    0.29076    1.000
    O31      O        0.69571    0.81974    0.10498    1.000
    O32      O        0.74219    0.64498    0.10231    1.000
    Mn8      Mn       0.82021    0.41617    0.56281    1.000
    H64      H        0.97390    0.90800    0.93100    1.000
