# CIF file generated by openbabel 3.1.0, see https://openbabel.org
data_I
_chemical_name_common 'WOXKOL_clean'
_cell_length_a 7.7565
_cell_length_b 9.5643
_cell_length_c 15.1895
_cell_angle_alpha 96.781
_cell_angle_beta 94.868
_cell_angle_gamma 110.509
_space_group_name_H-M_alt 'P 1'
_space_group_name_Hall 'P 1'
loop_
    _symmetry_equiv_pos_as_xyz
    x,y,z
loop_
    _atom_site_label
    _atom_site_type_symbol
    _atom_site_fract_x
    _atom_site_fract_y
    _atom_site_fract_z
    _atom_site_occupancy
    Mn1      Mn       0.29379    0.87735    0.58373    1.000
    Mn2      Mn       0.70621    0.12265    0.41627    1.000
    H1       H        0.89460    0.65090    0.92670    1.000
    H2       H        0.70020    0.87250    0.79210    1.000
    H3       H        0.60570    0.46890    0.57830    1.000
    H4       H        0.64840    0.23770    0.97570    1.000
    H5       H        0.32330    0.93670    0.10970    1.000
    H6       H        0.67670    0.06330    0.89030    1.000
    H7       H        0.62710    0.42980    0.07420    1.000
    H8       H        0.81980    0.22100    0.22090    1.000
    H9       H        0.83770    0.84130    0.01150    1.000
    H10      H        0.98930    0.28280    0.76490    1.000
    H11      H        0.44950    0.77110    0.21980    1.000
    H12      H        0.55050    0.22890    0.78020    1.000
    H13      H        0.89210    0.07370    0.09650    1.000
    H14      H        0.10540    0.34910    0.07330    1.000
    H15      H        0.39430    0.53110    0.42170    1.000
    H16      H        0.05460    0.51970    0.14940    1.000
    H17      H        0.85830    0.86210    0.30640    1.000
    H18      H        0.46980    0.57080    0.12690    1.000
    H19      H        0.10790    0.92630    0.90350    1.000
    H20      H        0.35160    0.76230    0.02430    1.000
    H21      H        0.14170    0.13790    0.69360    1.000
    H22      H        0.16230    0.15870    0.98850    1.000
    H23      H        0.37290    0.57020    0.92580    1.000
    H24      H        0.29980    0.12750    0.20790    1.000
    H25      H        0.53020    0.42920    0.87310    1.000
    H26      H        0.01070    0.71720    0.23510    1.000
    H27      H        0.94540    0.48030    0.85060    1.000
    H28      H        0.18020    0.77900    0.77910    1.000
    C1       C        0.48990    0.06200    0.03140    1.000
    C2       C        0.98350    0.56250    0.02790    1.000
    C3       C        0.41310    0.54070    0.36270    1.000
    C4       C        0.88430    0.77800    0.03950    1.000
    C5       C        0.39440    0.79870    0.39300    1.000
    C6       C        0.01650    0.43750    0.97210    1.000
    C7       C        0.58690    0.45930    0.63730    1.000
    C8       C        0.98580    0.70340    0.17300    1.000
    C9       C        0.16410    0.87060    0.77740    1.000
    C10      C        0.42090    0.78570    0.97740    1.000
    C11      C        0.85670    0.93300    0.26970    1.000
    C12      C        0.98610    0.41430    0.87910    1.000
    C13      C        0.12370    0.95150    0.84670    1.000
    C14      C        0.01390    0.58570    0.12090    1.000
    C15      C        0.37190    0.15110    0.16200    1.000
    C16      C        0.92030    0.79960    0.13150    1.000
    C17      C        0.41740    0.67300    0.33110    1.000
    C18      C        0.57910    0.21430    0.02260    1.000
    C19      C        0.14330    0.06700    0.73030    1.000
    C20      C        0.62810    0.84890    0.83800    1.000
    C21      C        0.07970    0.20040    0.86850    1.000
    C22      C        0.87630    0.04850    0.15330    1.000
    C23      C        0.11570    0.22200    0.96050    1.000
    C24      C        0.51010    0.93800    0.96860    1.000
    C25      C        0.56400    0.57650    0.69140    1.000
    C26      C        0.54240    0.43680    0.81330    1.000
    C27      C        0.91720    0.66250    0.98870    1.000
    C28      C        0.56630    0.33050    0.08230    1.000
    C29      C        0.54480    0.70310    0.64370    1.000
    C30      C        0.08280    0.33750    0.01130    1.000
    C31      C        0.44260    0.68320    0.24220    1.000
    C32      C        0.60560    0.20130    0.60700    1.000
    C33      C        0.45520    0.29690    0.35630    1.000
    C34      C        0.53460    0.69660    0.84600    1.000
    C35      C        0.58260    0.32700    0.66890    1.000
    C36      C        0.01420    0.29660    0.82700    1.000
    C37      C        0.54500    0.56850    0.78170    1.000
    C38      C        0.55740    0.31680    0.75780    1.000
    C39      C        0.45500    0.43150    0.21830    1.000
    C40      C        0.61390    0.96390    0.89780    1.000
    C41      C        0.43370    0.66950    0.91770    1.000
    C42      C        0.38610    0.03610    0.10220    1.000
    C43      C        0.46540    0.30340    0.15400    1.000
    C44      C        0.83590    0.12940    0.22260    1.000
    C45      C        0.43600    0.42350    0.30860    1.000
    C46      C        0.45760    0.56320    0.18670    1.000
    N1       N        0.11070    0.07890    0.81630    1.000
    N2       N        0.82230    0.05620    0.29610    1.000
    N3       N        0.17770    0.94380    0.70390    1.000
    N4       N        0.88930    0.92110    0.18370    1.000
    O1       O        0.39440    0.72750    0.64896    1.000
    O2       O        0.67250    0.76750    0.60200    1.000
    O3       O        0.32750    0.23250    0.39800    1.000
    O4       O        0.31900    0.76070    0.46082    1.000
    O5       O        0.68100    0.23930    0.53918    1.000
    O6       O        0.45140    0.93020    0.37469    1.000
    O7       O        0.54860    0.06980    0.62531    1.000
    O8       O        0.60560    0.27250    0.35104    1.000
