# CIF file generated by openbabel 3.1.0, see https://openbabel.org
data_I
_chemical_name_common 'image0'
_cell_length_a 7.5721
_cell_length_b 15.595
_cell_length_c 16.7063
_cell_angle_alpha 90
_cell_angle_beta 94.433
_cell_angle_gamma 90
_space_group_name_H-M_alt 'P 1'
_space_group_name_Hall 'P 1'
loop_
    _symmetry_equiv_pos_as_xyz
    x,y,z
loop_
    _atom_site_label
    _atom_site_type_symbol
    _atom_site_fract_x
    _atom_site_fract_y
    _atom_site_fract_z
    _atom_site_occupancy
    C1       C        0.74160    0.19250    0.54940    1.000
    C2       C        0.59990    0.23520    0.59470    1.000
    C3       C        0.64360    0.29020    0.65780    1.000
    H1       H        0.76020    0.30690    0.67110    1.000
    C4       C        0.50520    0.31980    0.70080    1.000
    C5       C        0.54470    0.36720    0.77900    1.000
    C6       C        0.30780    0.25420    0.61220    1.000
    H2       H        0.19050    0.24540    0.59320    1.000
    C7       C        0.79960    0.04720    0.68030    1.000
    C8       C        0.95740    0.08820    0.72660    1.000
    C9       C        0.93810    0.15230    0.78180    1.000
    H3       H        0.82710    0.17280    0.79260    1.000
    C10      C        0.09190    0.18490    0.82030    1.000
    C11      C        0.08970    0.26100    0.87690    1.000
    C12      C        0.25340    0.09210    0.75430    1.000
    H4       H        0.36410    0.06930    0.74600    1.000
    N1       N        0.43240    0.21540    0.57180    1.000
    N2       N        0.33590    0.30340    0.67630    1.000
    N3       N        0.11630    0.05900    0.71010    1.000
    N4       N        0.25040    0.15320    0.80850    1.000
    O1       O        0.68690    0.14060    0.49350    1.000
    O2       O        0.89760    0.20710    0.57120    1.000
    O3       O        0.68900    0.40430    0.78900    1.000
    O4       O        0.42840    0.36260    0.82820    1.000
    O5       O        0.83520    0.99140    0.62700    1.000
    O6       O        0.65020    0.07100    0.69370    1.000
    O7       O        0.95780    0.31070    0.86670    1.000
    O8       O        0.21680    0.27050    0.92730    1.000
    O9       O        0.09240    0.07550    0.51300    1.000
    O10      O        0.42000    0.00900    0.57250    1.000
    Eu1      Eu       0.37389    0.10226    0.45995    1.000
    Eu2      Eu       0.13348    0.94949    0.59434    1.000
    H5       H        0.07200    0.10600    0.53100    1.000
    H6       H        0.45800    0.03300    0.60500    1.000
    O11      O        0.28000    0.20000    0.98000    1.000
    C13      C        0.25840    0.69250    0.95060    1.000
    C14      C        0.40010    0.73520    0.90530    1.000
    C15      C        0.35640    0.79020    0.84220    1.000
    H7       H        0.23980    0.80690    0.82890    1.000
    C16      C        0.49480    0.81980    0.79920    1.000
    C17      C        0.45530    0.86720    0.72100    1.000
    C18      C        0.69220    0.75420    0.88780    1.000
    H8       H        0.80950    0.74540    0.90680    1.000
    C19      C        0.20040    0.54720    0.81970    1.000
    C20      C        0.04260    0.58820    0.77340    1.000
    C21      C        0.06190    0.65230    0.71820    1.000
    H9       H        0.17290    0.67280    0.70740    1.000
    C22      C        0.90810    0.68490    0.67970    1.000
    C23      C        0.91030    0.76100    0.62310    1.000
    C24      C        0.74660    0.59210    0.74570    1.000
    H10      H        0.63590    0.56930    0.75400    1.000
    N5       N        0.56760    0.71540    0.92820    1.000
    N6       N        0.66410    0.80340    0.82370    1.000
    N7       N        0.88370    0.55900    0.78990    1.000
    N8       N        0.74960    0.65320    0.69150    1.000
    O12      O        0.31310    0.64060    0.00650    1.000
    O13      O        0.10240    0.70710    0.92880    1.000
    O14      O        0.31100    0.90430    0.71100    1.000
    O15      O        0.57160    0.86260    0.67180    1.000
    O16      O        0.16480    0.49140    0.87300    1.000
    O17      O        0.34980    0.57100    0.80630    1.000
    O18      O        0.04220    0.81070    0.63330    1.000
    O19      O        0.78320    0.77050    0.57270    1.000
    O20      O        0.90760    0.57550    0.98700    1.000
    O21      O        0.58000    0.50900    0.92750    1.000
    Eu3      Eu       0.62611    0.60226    0.04005    1.000
    Eu4      Eu       0.86652    0.44949    0.90566    1.000
    H11      H        0.92800    0.60600    0.96900    1.000
    H12      H        0.54200    0.53300    0.89500    1.000
    O22      O        0.72000    0.70000    0.52000    1.000
    C25      C        0.25840    0.80750    0.45060    1.000
    C26      C        0.40010    0.76480    0.40530    1.000
    C27      C        0.35640    0.70980    0.34220    1.000
    H13      H        0.23980    0.69310    0.32890    1.000
    C28      C        0.49480    0.68020    0.29920    1.000
    C29      C        0.45530    0.63280    0.22100    1.000
    C30      C        0.69220    0.74580    0.38780    1.000
    H14      H        0.80950    0.75460    0.40680    1.000
    C31      C        0.20040    0.95280    0.31970    1.000
    C32      C        0.04260    0.91180    0.27340    1.000
    C33      C        0.06190    0.84770    0.21820    1.000
    H15      H        0.17290    0.82720    0.20740    1.000
    C34      C        0.90810    0.81510    0.17970    1.000
    C35      C        0.91030    0.73900    0.12310    1.000
    C36      C        0.74660    0.90790    0.24570    1.000
    H16      H        0.63590    0.93070    0.25400    1.000
    N9       N        0.56760    0.78460    0.42820    1.000
    N10      N        0.66410    0.69660    0.32370    1.000
    N11      N        0.88370    0.94100    0.28990    1.000
    N12      N        0.74960    0.84680    0.19150    1.000
    O23      O        0.31310    0.85940    0.50650    1.000
    O24      O        0.10240    0.79290    0.42880    1.000
    O25      O        0.31100    0.59570    0.21100    1.000
    O26      O        0.57160    0.63740    0.17180    1.000
    O27      O        0.16480    0.00860    0.37300    1.000
    O28      O        0.34980    0.92900    0.30630    1.000
    O29      O        0.04220    0.68930    0.13330    1.000
    O30      O        0.78320    0.72950    0.07270    1.000
    O31      O        0.90760    0.92450    0.48700    1.000
    O32      O        0.58000    0.99100    0.42750    1.000
    Eu5      Eu       0.62611    0.89774    0.54005    1.000
    Eu6      Eu       0.86652    0.05051    0.40566    1.000
    H17      H        0.92800    0.89400    0.46900    1.000
    H18      H        0.54200    0.96700    0.39500    1.000
    O33      O        0.72000    0.80000    0.02000    1.000
    C37      C        0.74160    0.30750    0.04940    1.000
    C38      C        0.59990    0.26480    0.09470    1.000
    C39      C        0.64360    0.20980    0.15780    1.000
    H19      H        0.76020    0.19310    0.17110    1.000
    C40      C        0.50520    0.18020    0.20080    1.000
    C41      C        0.54470    0.13280    0.27900    1.000
    C42      C        0.30780    0.24580    0.11220    1.000
    H20      H        0.19050    0.25460    0.09320    1.000
    C43      C        0.79960    0.45280    0.18030    1.000
    C44      C        0.95740    0.41180    0.22660    1.000
    C45      C        0.93810    0.34770    0.28180    1.000
    H21      H        0.82710    0.32720    0.29260    1.000
    C46      C        0.09190    0.31510    0.32030    1.000
    C47      C        0.08970    0.23900    0.37690    1.000
    C48      C        0.25340    0.40790    0.25430    1.000
    H22      H        0.36410    0.43070    0.24600    1.000
    N13      N        0.43240    0.28460    0.07180    1.000
    N14      N        0.33590    0.19660    0.17630    1.000
    N15      N        0.11630    0.44100    0.21010    1.000
    N16      N        0.25040    0.34680    0.30850    1.000
    O34      O        0.68690    0.35940    0.99350    1.000
    O35      O        0.89760    0.29290    0.07120    1.000
    O36      O        0.68900    0.09570    0.28900    1.000
    O37      O        0.42840    0.13740    0.32820    1.000
    O38      O        0.83520    0.50860    0.12700    1.000
    O39      O        0.65020    0.42900    0.19370    1.000
    O40      O        0.95780    0.18930    0.36670    1.000
    O41      O        0.21680    0.22950    0.42730    1.000
    O42      O        0.09240    0.42450    0.01300    1.000
    O43      O        0.42000    0.49100    0.07250    1.000
    Eu7      Eu       0.37389    0.39774    0.95995    1.000
    Eu8      Eu       0.13348    0.55051    0.09434    1.000
    H23      H        0.07200    0.39400    0.03100    1.000
    H24      H        0.45800    0.46700    0.10500    1.000
    O44      O        0.28000    0.30000    0.48000    1.000
