# CIF file generated by openbabel 3.1.0, see https://openbabel.org
data_I
_chemical_name_common 'image0'
_cell_length_a 7.203
_cell_length_b 13.43
_cell_length_c 17.54
_cell_angle_alpha 90
_cell_angle_beta 100.76
_cell_angle_gamma 90
_space_group_name_H-M_alt 'P 1'
_space_group_name_Hall 'P 1'
loop_
    _symmetry_equiv_pos_as_xyz
    x,y,z
loop_
    _atom_site_label
    _atom_site_type_symbol
    _atom_site_fract_x
    _atom_site_fract_y
    _atom_site_fract_z
    _atom_site_occupancy
    In1      In       0.46828    0.39817    0.94818    1.000
    O1       O        0.57710    0.33850    0.06310    1.000
    O2       O        0.68070    0.48140    0.12430    1.000
    O3       O        0.98690    0.37860    0.07370    1.000
    O4       O        0.25660    0.38970    0.16220    1.000
    O5       O        0.23280    0.19870    0.41560    1.000
    O6       O        0.97750    0.09820    0.40140    1.000
    O7       O        0.66600    0.22390    0.42410    1.000
    O8       O        0.53410    0.12800    0.32790    1.000
    O9       O        0.69060    0.51280    0.97100    1.000
    C1       C        0.78130    0.33080    0.18480    1.000
    C2       C        0.97730    0.32520    0.19980    1.000
    C3       C        0.07070    0.27810    0.26740    1.000
    H1       H        0.20480    0.27560    0.27870    1.000
    C4       C        0.96720    0.23520    0.31800    1.000
    C5       C        0.76930    0.24040    0.30250    1.000
    C6       C        0.67770    0.28850    0.23640    1.000
    H2       H        0.54370    0.29280    0.22600    1.000
    C7       C        0.67320    0.38880    0.11760    1.000
    C8       C        0.08600    0.36850    0.14200    1.000
    C9       C        0.06480    0.17290    0.38420    1.000
    C10      C        0.65190    0.19580    0.35460    1.000
    In2      In       0.53172    0.89817    0.55182    1.000
    O10      O        0.42290    0.83850    0.43690    1.000
    O11      O        0.31930    0.98140    0.37570    1.000
    O12      O        0.01310    0.87860    0.42630    1.000
    O13      O        0.74340    0.88970    0.33780    1.000
    O14      O        0.76720    0.69870    0.08440    1.000
    O15      O        0.02250    0.59820    0.09860    1.000
    O16      O        0.33400    0.72390    0.07590    1.000
    O17      O        0.46590    0.62800    0.17210    1.000
    O18      O        0.30940    0.01280    0.52900    1.000
    C11      C        0.21870    0.83080    0.31520    1.000
    C12      C        0.02270    0.82520    0.30020    1.000
    C13      C        0.92930    0.77810    0.23260    1.000
    H3       H        0.79520    0.77560    0.22130    1.000
    C14      C        0.03280    0.73520    0.18200    1.000
    C15      C        0.23070    0.74040    0.19750    1.000
    C16      C        0.32230    0.78850    0.26360    1.000
    H4       H        0.45630    0.79280    0.27400    1.000
    C17      C        0.32680    0.88880    0.38240    1.000
    C18      C        0.91400    0.86850    0.35800    1.000
    C19      C        0.93520    0.67290    0.11580    1.000
    C20      C        0.34810    0.69580    0.14540    1.000
    In3      In       0.53172    0.60183    0.05182    1.000
    O19      O        0.42290    0.66150    0.93690    1.000
    O20      O        0.31930    0.51860    0.87570    1.000
    O21      O        0.01310    0.62140    0.92630    1.000
    O22      O        0.74340    0.61030    0.83780    1.000
    O23      O        0.76720    0.80130    0.58440    1.000
    O24      O        0.02250    0.90180    0.59860    1.000
    O25      O        0.33400    0.77610    0.57590    1.000
    O26      O        0.46590    0.87200    0.67210    1.000
    O27      O        0.30940    0.48720    0.02900    1.000
    C21      C        0.21870    0.66920    0.81520    1.000
    C22      C        0.02270    0.67480    0.80020    1.000
    C23      C        0.92930    0.72190    0.73260    1.000
    H5       H        0.79520    0.72440    0.72130    1.000
    C24      C        0.03280    0.76480    0.68200    1.000
    C25      C        0.23070    0.75960    0.69750    1.000
    C26      C        0.32230    0.71150    0.76360    1.000
    H6       H        0.45630    0.70720    0.77400    1.000
    C27      C        0.32680    0.61120    0.88240    1.000
    C28      C        0.91400    0.63150    0.85800    1.000
    C29      C        0.93520    0.82710    0.61580    1.000
    C30      C        0.34810    0.80420    0.64540    1.000
    In4      In       0.46828    0.10183    0.44818    1.000
    O28      O        0.57710    0.16150    0.56310    1.000
    O29      O        0.68070    0.01860    0.62430    1.000
    O30      O        0.98690    0.12140    0.57370    1.000
    O31      O        0.25660    0.11030    0.66220    1.000
    O32      O        0.23280    0.30130    0.91560    1.000
    O33      O        0.97750    0.40180    0.90140    1.000
    O34      O        0.66600    0.27610    0.92410    1.000
    O35      O        0.53410    0.37200    0.82790    1.000
    O36      O        0.69060    0.98720    0.47100    1.000
    C31      C        0.78130    0.16920    0.68480    1.000
    C32      C        0.97730    0.17480    0.69980    1.000
    C33      C        0.07070    0.22190    0.76740    1.000
    H7       H        0.20480    0.22440    0.77870    1.000
    C34      C        0.96720    0.26480    0.81800    1.000
    C35      C        0.76930    0.25960    0.80250    1.000
    C36      C        0.67770    0.21150    0.73640    1.000
    H8       H        0.54370    0.20720    0.72600    1.000
    C37      C        0.67320    0.11120    0.61760    1.000
    C38      C        0.08600    0.13150    0.64200    1.000
    C39      C        0.06480    0.32710    0.88420    1.000
    C40      C        0.65190    0.30420    0.85460    1.000
    In5      In       0.00000    0.50000    0.00000    1.000
    In6      In       0.00000    0.00000    0.50000    1.000
