# CIF file generated by openbabel 3.1.0, see https://openbabel.org
data_I
_chemical_name_common 'image0'
_cell_length_a 9.247
_cell_length_b 8.824
_cell_length_c 9.693
_cell_angle_alpha 90
_cell_angle_beta 120.72
_cell_angle_gamma 90
_space_group_name_H-M_alt 'P 1'
_space_group_name_Hall 'P 1'
loop_
    _symmetry_equiv_pos_as_xyz
    x,y,z
loop_
    _atom_site_label
    _atom_site_type_symbol
    _atom_site_fract_x
    _atom_site_fract_y
    _atom_site_fract_z
    _atom_site_occupancy
    P1       P        0.26320    0.89750    0.93150    1.000
    P2       P        0.16470    0.66760    0.52690    1.000
    O1       O        0.14300    0.59600    0.65800    1.000
    O2       O        0.33200    0.73500    0.58600    1.000
    O3       O        0.14900    0.55600    0.39500    1.000
    O4       O        0.34700    0.94100    0.10700    1.000
    O5       O        0.13800    0.77000    0.90100    1.000
    O6       O        0.37400    0.88200    0.86800    1.000
    P3       P        0.73680    0.89750    0.56850    1.000
    P4       P        0.83530    0.66760    0.97310    1.000
    O7       O        0.85700    0.59600    0.84200    1.000
    O8       O        0.66800    0.73500    0.91400    1.000
    O9       O        0.85100    0.55600    0.10500    1.000
    O10      O        0.65300    0.94100    0.39300    1.000
    O11      O        0.86200    0.77000    0.59900    1.000
    O12      O        0.62600    0.88200    0.63200    1.000
    P5       P        0.73680    0.10250    0.06850    1.000
    P6       P        0.83530    0.33240    0.47310    1.000
    O13      O        0.85700    0.40400    0.34200    1.000
    O14      O        0.66800    0.26500    0.41400    1.000
    O15      O        0.85100    0.44400    0.60500    1.000
    O16      O        0.65300    0.05900    0.89300    1.000
    O17      O        0.86200    0.23000    0.09900    1.000
    O18      O        0.62600    0.11800    0.13200    1.000
    P7       P        0.26320    0.10250    0.43150    1.000
    P8       P        0.16470    0.33240    0.02690    1.000
    O19      O        0.14300    0.40400    0.15800    1.000
    O20      O        0.33200    0.26500    0.08600    1.000
    O21      O        0.14900    0.44400    0.89500    1.000
    O22      O        0.34700    0.05900    0.60700    1.000
    O23      O        0.13800    0.23000    0.40100    1.000
    O24      O        0.37400    0.11800    0.36800    1.000
    Fe1      Fe       0.00000    0.60960    0.75000    1.000
    Fe2      Fe       0.00000    0.39040    0.25000    1.000
    Fe3      Fe       0.50000    0.88770    0.75000    1.000
    Fe4      Fe       0.50000    0.11230    0.25000    1.000
