# CIF file generated by openbabel 3.1.0, see https://openbabel.org
data_I
_chemical_name_common 'image0'
_cell_length_a 30.4128
_cell_length_b 30.4128
_cell_length_c 30.4128
_cell_angle_alpha 90
_cell_angle_beta 90
_cell_angle_gamma 90
_space_group_name_H-M_alt 'P 1'
_space_group_name_Hall 'P 1'
loop_
    _symmetry_equiv_pos_as_xyz
    x,y,z
loop_
    _atom_site_label
    _atom_site_type_symbol
    _atom_site_fract_x
    _atom_site_fract_y
    _atom_site_fract_z
    _atom_site_occupancy
    O1       O        0.22750    0.29140    0.45490    1.000
    O2       O        0.28010    0.34330    0.45530    1.000
    O3       O        0.08390    0.41530    0.33780    1.000
    C1       C        0.03960    0.35260    0.32980    1.000
    C2       C        0.24460    0.32660    0.44140    1.000
    C3       C        0.22060    0.35130    0.40700    1.000
    C4       C        0.17900    0.33840    0.39390    1.000
    H1       H        0.16530    0.31480    0.40770    1.000
    C5       C        0.08280    0.37520    0.33800    1.000
    O4       O        0.72750    0.79140    0.95490    1.000
    O5       O        0.78010    0.84330    0.95530    1.000
    O6       O        0.58390    0.91530    0.83780    1.000
    C6       C        0.53960    0.85260    0.82980    1.000
    C7       C        0.74460    0.82660    0.94140    1.000
    C8       C        0.72060    0.85130    0.90700    1.000
    C9       C        0.67900    0.83840    0.89390    1.000
    H2       H        0.66530    0.81480    0.90770    1.000
    C10      C        0.58280    0.87520    0.83800    1.000
    O7       O        0.77250    0.70860    0.45490    1.000
    O8       O        0.71990    0.65670    0.45530    1.000
    O9       O        0.91610    0.58470    0.33780    1.000
    C11      C        0.96040    0.64740    0.32980    1.000
    C12      C        0.75540    0.67340    0.44140    1.000
    C13      C        0.77940    0.64870    0.40700    1.000
    C14      C        0.82100    0.66160    0.39390    1.000
    H3       H        0.83470    0.68520    0.40770    1.000
    C15      C        0.91720    0.62480    0.33800    1.000
    O10      O        0.27250    0.20860    0.95490    1.000
    O11      O        0.21990    0.15670    0.95530    1.000
    O12      O        0.41610    0.08470    0.83780    1.000
    C16      C        0.46040    0.14740    0.82980    1.000
    C17      C        0.25540    0.17340    0.94140    1.000
    C18      C        0.27940    0.14870    0.90700    1.000
    C19      C        0.32100    0.16160    0.89390    1.000
    H4       H        0.33470    0.18520    0.90770    1.000
    C20      C        0.41720    0.12480    0.83800    1.000
    O13      O        0.77250    0.29140    0.54510    1.000
    O14      O        0.71990    0.34330    0.54470    1.000
    O15      O        0.91610    0.41530    0.66220    1.000
    C21      C        0.96040    0.35260    0.67020    1.000
    C22      C        0.75540    0.32660    0.55860    1.000
    C23      C        0.77940    0.35130    0.59300    1.000
    C24      C        0.82100    0.33840    0.60610    1.000
    H5       H        0.83470    0.31480    0.59230    1.000
    C25      C        0.91720    0.37520    0.66200    1.000
    O16      O        0.27250    0.79140    0.04510    1.000
    O17      O        0.21990    0.84330    0.04470    1.000
    O18      O        0.41610    0.91530    0.16220    1.000
    C26      C        0.46040    0.85260    0.17020    1.000
    C27      C        0.25540    0.82660    0.05860    1.000
    C28      C        0.27940    0.85130    0.09300    1.000
    C29      C        0.32100    0.83840    0.10610    1.000
    H6       H        0.33470    0.81480    0.09230    1.000
    C30      C        0.41720    0.87520    0.16200    1.000
    O19      O        0.22750    0.70860    0.54510    1.000
    O20      O        0.28010    0.65670    0.54470    1.000
    O21      O        0.08390    0.58470    0.66220    1.000
    C31      C        0.03960    0.64740    0.67020    1.000
    C32      C        0.24460    0.67340    0.55860    1.000
    C33      C        0.22060    0.64870    0.59300    1.000
    C34      C        0.17900    0.66160    0.60610    1.000
    H7       H        0.16530    0.68520    0.59230    1.000
    C35      C        0.08280    0.62480    0.66200    1.000
    O22      O        0.72750    0.20860    0.04510    1.000
    O23      O        0.78010    0.15670    0.04470    1.000
    O24      O        0.58390    0.08470    0.16220    1.000
    C36      C        0.53960    0.14740    0.17020    1.000
    C37      C        0.74460    0.17340    0.05860    1.000
    C38      C        0.72060    0.14870    0.09300    1.000
    C39      C        0.67900    0.16160    0.10610    1.000
    H8       H        0.66530    0.18520    0.09230    1.000
    C40      C        0.58280    0.12480    0.16200    1.000
    O25      O        0.45490    0.22750    0.29140    1.000
    O26      O        0.45530    0.28010    0.34330    1.000
    O27      O        0.33780    0.08390    0.41530    1.000
    C41      C        0.32980    0.03960    0.35260    1.000
    C42      C        0.44140    0.24460    0.32660    1.000
    C43      C        0.40700    0.22060    0.35130    1.000
    C44      C        0.39390    0.17900    0.33840    1.000
    H9       H        0.40770    0.16530    0.31480    1.000
    C45      C        0.33800    0.08280    0.37520    1.000
    O28      O        0.95490    0.72750    0.79140    1.000
    O29      O        0.95530    0.78010    0.84330    1.000
    O30      O        0.83780    0.58390    0.91530    1.000
    C46      C        0.82980    0.53960    0.85260    1.000
    C47      C        0.94140    0.74460    0.82660    1.000
    C48      C        0.90700    0.72060    0.85130    1.000
    C49      C        0.89390    0.67900    0.83840    1.000
    H10      H        0.90770    0.66530    0.81480    1.000
    C50      C        0.83800    0.58280    0.87520    1.000
    O31      O        0.45490    0.77250    0.70860    1.000
    O32      O        0.45530    0.71990    0.65670    1.000
    O33      O        0.33780    0.91610    0.58470    1.000
    C51      C        0.32980    0.96040    0.64740    1.000
    C52      C        0.44140    0.75540    0.67340    1.000
    C53      C        0.40700    0.77940    0.64870    1.000
    C54      C        0.39390    0.82100    0.66160    1.000
    H11      H        0.40770    0.83470    0.68520    1.000
    C55      C        0.33800    0.91720    0.62480    1.000
    O34      O        0.95490    0.27250    0.20860    1.000
    O35      O        0.95530    0.21990    0.15670    1.000
    O36      O        0.83780    0.41610    0.08470    1.000
    C56      C        0.82980    0.46040    0.14740    1.000
    C57      C        0.94140    0.25540    0.17340    1.000
    C58      C        0.90700    0.27940    0.14870    1.000
    C59      C        0.89390    0.32100    0.16160    1.000
    H12      H        0.90770    0.33470    0.18520    1.000
    C60      C        0.83800    0.41720    0.12480    1.000
    O37      O        0.54510    0.77250    0.29140    1.000
    O38      O        0.54470    0.71990    0.34330    1.000
    O39      O        0.66220    0.91610    0.41530    1.000
    C61      C        0.67020    0.96040    0.35260    1.000
    C62      C        0.55860    0.75540    0.32660    1.000
    C63      C        0.59300    0.77940    0.35130    1.000
    C64      C        0.60610    0.82100    0.33840    1.000
    H13      H        0.59230    0.83470    0.31480    1.000
    C65      C        0.66200    0.91720    0.37520    1.000
    O40      O        0.04510    0.27250    0.79140    1.000
    O41      O        0.04470    0.21990    0.84330    1.000
    O42      O        0.16220    0.41610    0.91530    1.000
    C66      C        0.17020    0.46040    0.85260    1.000
    C67      C        0.05860    0.25540    0.82660    1.000
    C68      C        0.09300    0.27940    0.85130    1.000
    C69      C        0.10610    0.32100    0.83840    1.000
    H14      H        0.09230    0.33470    0.81480    1.000
    C70      C        0.16200    0.41720    0.87520    1.000
    O43      O        0.54510    0.22750    0.70860    1.000
    O44      O        0.54470    0.28010    0.65670    1.000
    O45      O        0.66220    0.08390    0.58470    1.000
    C71      C        0.67020    0.03960    0.64740    1.000
    C72      C        0.55860    0.24460    0.67340    1.000
    C73      C        0.59300    0.22060    0.64870    1.000
    C74      C        0.60610    0.17900    0.66160    1.000
    H15      H        0.59230    0.16530    0.68520    1.000
    C75      C        0.66200    0.08280    0.62480    1.000
    O46      O        0.04510    0.72750    0.20860    1.000
    O47      O        0.04470    0.78010    0.15670    1.000
    O48      O        0.16220    0.58390    0.08470    1.000
    C76      C        0.17020    0.53960    0.14740    1.000
    C77      C        0.05860    0.74460    0.17340    1.000
    C78      C        0.09300    0.72060    0.14870    1.000
    C79      C        0.10610    0.67900    0.16160    1.000
    H16      H        0.09230    0.66530    0.18520    1.000
    C80      C        0.16200    0.58280    0.12480    1.000
    O49      O        0.29140    0.45490    0.22750    1.000
    O50      O        0.34330    0.45530    0.28010    1.000
    O51      O        0.41530    0.33780    0.08390    1.000
    C81      C        0.35260    0.32980    0.03960    1.000
    C82      C        0.32660    0.44140    0.24460    1.000
    C83      C        0.35130    0.40700    0.22060    1.000
    C84      C        0.33840    0.39390    0.17900    1.000
    H17      H        0.31480    0.40770    0.16530    1.000
    C85      C        0.37520    0.33800    0.08280    1.000
    O52      O        0.79140    0.95490    0.72750    1.000
    O53      O        0.84330    0.95530    0.78010    1.000
    O54      O        0.91530    0.83780    0.58390    1.000
    C86      C        0.85260    0.82980    0.53960    1.000
    C87      C        0.82660    0.94140    0.74460    1.000
    C88      C        0.85130    0.90700    0.72060    1.000
    C89      C        0.83840    0.89390    0.67900    1.000
    H18      H        0.81480    0.90770    0.66530    1.000
    C90      C        0.87520    0.83800    0.58280    1.000
    O55      O        0.70860    0.45490    0.77250    1.000
    O56      O        0.65670    0.45530    0.71990    1.000
    O57      O        0.58470    0.33780    0.91610    1.000
    C91      C        0.64740    0.32980    0.96040    1.000
    C92      C        0.67340    0.44140    0.75540    1.000
    C93      C        0.64870    0.40700    0.77940    1.000
    C94      C        0.66160    0.39390    0.82100    1.000
    H19      H        0.68520    0.40770    0.83470    1.000
    C95      C        0.62480    0.33800    0.91720    1.000
    O58      O        0.20860    0.95490    0.27250    1.000
    O59      O        0.15670    0.95530    0.21990    1.000
    O60      O        0.08470    0.83780    0.41610    1.000
    C96      C        0.14740    0.82980    0.46040    1.000
    C97      C        0.17340    0.94140    0.25540    1.000
    C98      C        0.14870    0.90700    0.27940    1.000
    C99      C        0.16160    0.89390    0.32100    1.000
    H20      H        0.18520    0.90770    0.33470    1.000
    C100     C        0.12480    0.83800    0.41720    1.000
    O61      O        0.29140    0.54510    0.77250    1.000
    O62      O        0.34330    0.54470    0.71990    1.000
    O63      O        0.41530    0.66220    0.91610    1.000
    C101     C        0.35260    0.67020    0.96040    1.000
    C102     C        0.32660    0.55860    0.75540    1.000
    C103     C        0.35130    0.59300    0.77940    1.000
    C104     C        0.33840    0.60610    0.82100    1.000
    H21      H        0.31480    0.59230    0.83470    1.000
    C105     C        0.37520    0.66200    0.91720    1.000
    O64      O        0.79140    0.04510    0.27250    1.000
    O65      O        0.84330    0.04470    0.21990    1.000
    O66      O        0.91530    0.16220    0.41610    1.000
    C106     C        0.85260    0.17020    0.46040    1.000
    C107     C        0.82660    0.05860    0.25540    1.000
    C108     C        0.85130    0.09300    0.27940    1.000
    C109     C        0.83840    0.10610    0.32100    1.000
    H22      H        0.81480    0.09230    0.33470    1.000
    C110     C        0.87520    0.16200    0.41720    1.000
    O67      O        0.70860    0.54510    0.22750    1.000
    O68      O        0.65670    0.54470    0.28010    1.000
    O69      O        0.58470    0.66220    0.08390    1.000
    C111     C        0.64740    0.67020    0.03960    1.000
    C112     C        0.67340    0.55860    0.24460    1.000
    C113     C        0.64870    0.59300    0.22060    1.000
    C114     C        0.66160    0.60610    0.17900    1.000
    H23      H        0.68520    0.59230    0.16530    1.000
    C115     C        0.62480    0.66200    0.08280    1.000
    O70      O        0.20860    0.04510    0.72750    1.000
    O71      O        0.15670    0.04470    0.78010    1.000
    O72      O        0.08470    0.16220    0.58390    1.000
    C116     C        0.14740    0.17020    0.53960    1.000
    C117     C        0.17340    0.05860    0.74460    1.000
    C118     C        0.14870    0.09300    0.72060    1.000
    C119     C        0.16160    0.10610    0.67900    1.000
    H24      H        0.18520    0.09230    0.66530    1.000
    C120     C        0.12480    0.16200    0.58280    1.000
    O73      O        0.29140    0.22750    0.54510    1.000
    O74      O        0.34330    0.28010    0.54470    1.000
    O75      O        0.41530    0.08390    0.66220    1.000
    C121     C        0.35260    0.03960    0.67020    1.000
    C122     C        0.32660    0.24460    0.55860    1.000
    C123     C        0.35130    0.22060    0.59300    1.000
    C124     C        0.33840    0.17900    0.60610    1.000
    H25      H        0.31480    0.16530    0.59230    1.000
    C125     C        0.37520    0.08280    0.66200    1.000
    O76      O        0.79140    0.72750    0.04510    1.000
    O77      O        0.84330    0.78010    0.04470    1.000
    O78      O        0.91530    0.58390    0.16220    1.000
    C126     C        0.85260    0.53960    0.17020    1.000
    C127     C        0.82660    0.74460    0.05860    1.000
    C128     C        0.85130    0.72060    0.09300    1.000
    C129     C        0.83840    0.67900    0.10610    1.000
    H26      H        0.81480    0.66530    0.09230    1.000
    C130     C        0.87520    0.58280    0.16200    1.000
    O79      O        0.70860    0.77250    0.54510    1.000
    O80      O        0.65670    0.71990    0.54470    1.000
    O81      O        0.58470    0.91610    0.66220    1.000
    C131     C        0.64740    0.96040    0.67020    1.000
    C132     C        0.67340    0.75540    0.55860    1.000
    C133     C        0.64870    0.77940    0.59300    1.000
    C134     C        0.66160    0.82100    0.60610    1.000
    H27      H        0.68520    0.83470    0.59230    1.000
    C135     C        0.62480    0.91720    0.66200    1.000
    O82      O        0.20860    0.27250    0.04510    1.000
    O83      O        0.15670    0.21990    0.04470    1.000
    O84      O        0.08470    0.41610    0.16220    1.000
    C136     C        0.14740    0.46040    0.17020    1.000
    C137     C        0.17340    0.25540    0.05860    1.000
    C138     C        0.14870    0.27940    0.09300    1.000
    C139     C        0.16160    0.32100    0.10610    1.000
    H28      H        0.18520    0.33470    0.09230    1.000
    C140     C        0.12480    0.41720    0.16200    1.000
    O85      O        0.29140    0.77250    0.45490    1.000
    O86      O        0.34330    0.71990    0.45530    1.000
    O87      O        0.41530    0.91610    0.33780    1.000
    C141     C        0.35260    0.96040    0.32980    1.000
    C142     C        0.32660    0.75540    0.44140    1.000
    C143     C        0.35130    0.77940    0.40700    1.000
    C144     C        0.33840    0.82100    0.39390    1.000
    H29      H        0.31480    0.83470    0.40770    1.000
    C145     C        0.37520    0.91720    0.33800    1.000
    O88      O        0.79140    0.27250    0.95490    1.000
    O89      O        0.84330    0.21990    0.95530    1.000
    O90      O        0.91530    0.41610    0.83780    1.000
    C146     C        0.85260    0.46040    0.82980    1.000
    C147     C        0.82660    0.25540    0.94140    1.000
    C148     C        0.85130    0.27940    0.90700    1.000
    C149     C        0.83840    0.32100    0.89390    1.000
    H30      H        0.81480    0.33470    0.90770    1.000
    C150     C        0.87520    0.41720    0.83800    1.000
    O91      O        0.70860    0.22750    0.45490    1.000
    O92      O        0.65670    0.28010    0.45530    1.000
    O93      O        0.58470    0.08390    0.33780    1.000
    C151     C        0.64740    0.03960    0.32980    1.000
    C152     C        0.67340    0.24460    0.44140    1.000
    C153     C        0.64870    0.22060    0.40700    1.000
    C154     C        0.66160    0.17900    0.39390    1.000
    H31      H        0.68520    0.16530    0.40770    1.000
    C155     C        0.62480    0.08280    0.33800    1.000
    O94      O        0.20860    0.72750    0.95490    1.000
    O95      O        0.15670    0.78010    0.95530    1.000
    O96      O        0.08470    0.58390    0.83780    1.000
    C156     C        0.14740    0.53960    0.82980    1.000
    C157     C        0.17340    0.74460    0.94140    1.000
    C158     C        0.14870    0.72060    0.90700    1.000
    C159     C        0.16160    0.67900    0.89390    1.000
    H32      H        0.18520    0.66530    0.90770    1.000
    C160     C        0.12480    0.58280    0.83800    1.000
    O97      O        0.22750    0.45490    0.70860    1.000
    O98      O        0.28010    0.45530    0.65670    1.000
    O99      O        0.08390    0.33780    0.58470    1.000
    C161     C        0.03960    0.32980    0.64740    1.000
    C162     C        0.24460    0.44140    0.67340    1.000
    C163     C        0.22060    0.40700    0.64870    1.000
    C164     C        0.17900    0.39390    0.66160    1.000
    H33      H        0.16530    0.40770    0.68520    1.000
    C165     C        0.08280    0.33800    0.62480    1.000
    O100     O        0.72750    0.95490    0.20860    1.000
    O101     O        0.78010    0.95530    0.15670    1.000
    O102     O        0.58390    0.83780    0.08470    1.000
    C166     C        0.53960    0.82980    0.14740    1.000
    C167     C        0.74460    0.94140    0.17340    1.000
    C168     C        0.72060    0.90700    0.14870    1.000
    C169     C        0.67900    0.89390    0.16160    1.000
    H34      H        0.66530    0.90770    0.18520    1.000
    C170     C        0.58280    0.83800    0.12480    1.000
    O103     O        0.77250    0.45490    0.29140    1.000
    O104     O        0.71990    0.45530    0.34330    1.000
    O105     O        0.91610    0.33780    0.41530    1.000
    C171     C        0.96040    0.32980    0.35260    1.000
    C172     C        0.75540    0.44140    0.32660    1.000
    C173     C        0.77940    0.40700    0.35130    1.000
    C174     C        0.82100    0.39390    0.33840    1.000
    H35      H        0.83470    0.40770    0.31480    1.000
    C175     C        0.91720    0.33800    0.37520    1.000
    O106     O        0.27250    0.95490    0.79140    1.000
    O107     O        0.21990    0.95530    0.84330    1.000
    O108     O        0.41610    0.83780    0.91530    1.000
    C176     C        0.46040    0.82980    0.85260    1.000
    C177     C        0.25540    0.94140    0.82660    1.000
    C178     C        0.27940    0.90700    0.85130    1.000
    C179     C        0.32100    0.89390    0.83840    1.000
    H36      H        0.33470    0.90770    0.81480    1.000
    C180     C        0.41720    0.83800    0.87520    1.000
    O109     O        0.77250    0.54510    0.70860    1.000
    O110     O        0.71990    0.54470    0.65670    1.000
    O111     O        0.91610    0.66220    0.58470    1.000
    C181     C        0.96040    0.67020    0.64740    1.000
    C182     C        0.75540    0.55860    0.67340    1.000
    C183     C        0.77940    0.59300    0.64870    1.000
    C184     C        0.82100    0.60610    0.66160    1.000
    H37      H        0.83470    0.59230    0.68520    1.000
    C185     C        0.91720    0.66200    0.62480    1.000
    O112     O        0.27250    0.04510    0.20860    1.000
    O113     O        0.21990    0.04470    0.15670    1.000
    O114     O        0.41610    0.16220    0.08470    1.000
    C186     C        0.46040    0.17020    0.14740    1.000
    C187     C        0.25540    0.05860    0.17340    1.000
    C188     C        0.27940    0.09300    0.14870    1.000
    C189     C        0.32100    0.10610    0.16160    1.000
    H38      H        0.33470    0.09230    0.18520    1.000
    C190     C        0.41720    0.16200    0.12480    1.000
    O115     O        0.22750    0.54510    0.29140    1.000
    O116     O        0.28010    0.54470    0.34330    1.000
    O117     O        0.08390    0.66220    0.41530    1.000
    C191     C        0.03960    0.67020    0.35260    1.000
    C192     C        0.24460    0.55860    0.32660    1.000
    C193     C        0.22060    0.59300    0.35130    1.000
    C194     C        0.17900    0.60610    0.33840    1.000
    H39      H        0.16530    0.59230    0.31480    1.000
    C195     C        0.08280    0.66200    0.37520    1.000
    O118     O        0.72750    0.04510    0.79140    1.000
    O119     O        0.78010    0.04470    0.84330    1.000
    O120     O        0.58390    0.16220    0.91530    1.000
    C196     C        0.53960    0.17020    0.85260    1.000
    C197     C        0.74460    0.05860    0.82660    1.000
    C198     C        0.72060    0.09300    0.85130    1.000
    C199     C        0.67900    0.10610    0.83840    1.000
    H40      H        0.66530    0.09230    0.81480    1.000
    C200     C        0.58280    0.16200    0.87520    1.000
    O121     O        0.45490    0.29140    0.77250    1.000
    O122     O        0.45530    0.34330    0.71990    1.000
    O123     O        0.33780    0.41530    0.91610    1.000
    C201     C        0.32980    0.35260    0.96040    1.000
    C202     C        0.44140    0.32660    0.75540    1.000
    C203     C        0.40700    0.35130    0.77940    1.000
    C204     C        0.39390    0.33840    0.82100    1.000
    H41      H        0.40770    0.31480    0.83470    1.000
    C205     C        0.33800    0.37520    0.91720    1.000
    O124     O        0.95490    0.79140    0.27250    1.000
    O125     O        0.95530    0.84330    0.21990    1.000
    O126     O        0.83780    0.91530    0.41610    1.000
    C206     C        0.82980    0.85260    0.46040    1.000
    C207     C        0.94140    0.82660    0.25540    1.000
    C208     C        0.90700    0.85130    0.27940    1.000
    C209     C        0.89390    0.83840    0.32100    1.000
    H42      H        0.90770    0.81480    0.33470    1.000
    C210     C        0.83800    0.87520    0.41720    1.000
    O127     O        0.45490    0.70860    0.22750    1.000
    O128     O        0.45530    0.65670    0.28010    1.000
    O129     O        0.33780    0.58470    0.08390    1.000
    C211     C        0.32980    0.64740    0.03960    1.000
    C212     C        0.44140    0.67340    0.24460    1.000
    C213     C        0.40700    0.64870    0.22060    1.000
    C214     C        0.39390    0.66160    0.17900    1.000
    H43      H        0.40770    0.68520    0.16530    1.000
    C215     C        0.33800    0.62480    0.08280    1.000
    O130     O        0.95490    0.20860    0.72750    1.000
    O131     O        0.95530    0.15670    0.78010    1.000
    O132     O        0.83780    0.08470    0.58390    1.000
    C216     C        0.82980    0.14740    0.53960    1.000
    C217     C        0.94140    0.17340    0.74460    1.000
    C218     C        0.90700    0.14870    0.72060    1.000
    C219     C        0.89390    0.16160    0.67900    1.000
    H44      H        0.90770    0.18520    0.66530    1.000
    C220     C        0.83800    0.12480    0.58280    1.000
    O133     O        0.54510    0.29140    0.22750    1.000
    O134     O        0.54470    0.34330    0.28010    1.000
    O135     O        0.66220    0.41530    0.08390    1.000
    C221     C        0.67020    0.35260    0.03960    1.000
    C222     C        0.55860    0.32660    0.24460    1.000
    C223     C        0.59300    0.35130    0.22060    1.000
    C224     C        0.60610    0.33840    0.17900    1.000
    H45      H        0.59230    0.31480    0.16530    1.000
    C225     C        0.66200    0.37520    0.08280    1.000
    O136     O        0.04510    0.79140    0.72750    1.000
    O137     O        0.04470    0.84330    0.78010    1.000
    O138     O        0.16220    0.91530    0.58390    1.000
    C226     C        0.17020    0.85260    0.53960    1.000
    C227     C        0.05860    0.82660    0.74460    1.000
    C228     C        0.09300    0.85130    0.72060    1.000
    C229     C        0.10610    0.83840    0.67900    1.000
    H46      H        0.09230    0.81480    0.66530    1.000
    C230     C        0.16200    0.87520    0.58280    1.000
    O139     O        0.54510    0.70860    0.77250    1.000
    O140     O        0.54470    0.65670    0.71990    1.000
    O141     O        0.66220    0.58470    0.91610    1.000
    C231     C        0.67020    0.64740    0.96040    1.000
    C232     C        0.55860    0.67340    0.75540    1.000
    C233     C        0.59300    0.64870    0.77940    1.000
    C234     C        0.60610    0.66160    0.82100    1.000
    H47      H        0.59230    0.68520    0.83470    1.000
    C235     C        0.66200    0.62480    0.91720    1.000
    O142     O        0.04510    0.20860    0.27250    1.000
    O143     O        0.04470    0.15670    0.21990    1.000
    O144     O        0.16220    0.08470    0.41610    1.000
    C236     C        0.17020    0.14740    0.46040    1.000
    C237     C        0.05860    0.17340    0.25540    1.000
    C238     C        0.09300    0.14870    0.27940    1.000
    C239     C        0.10610    0.16160    0.32100    1.000
    H48      H        0.09230    0.18520    0.33470    1.000
    C240     C        0.16200    0.12480    0.41720    1.000
    O145     O        0.77250    0.70860    0.54510    1.000
    O146     O        0.71990    0.65670    0.54470    1.000
    O147     O        0.91610    0.58470    0.66220    1.000
    C241     C        0.96040    0.64740    0.67020    1.000
    C242     C        0.75540    0.67340    0.55860    1.000
    C243     C        0.77940    0.64870    0.59300    1.000
    C244     C        0.82100    0.66160    0.60610    1.000
    H49      H        0.83470    0.68520    0.59230    1.000
    C245     C        0.91720    0.62480    0.66200    1.000
    O148     O        0.27250    0.20860    0.04510    1.000
    O149     O        0.21990    0.15670    0.04470    1.000
    O150     O        0.41610    0.08470    0.16220    1.000
    C246     C        0.46040    0.14740    0.17020    1.000
    C247     C        0.25540    0.17340    0.05860    1.000
    C248     C        0.27940    0.14870    0.09300    1.000
    C249     C        0.32100    0.16160    0.10610    1.000
    H50      H        0.33470    0.18520    0.09230    1.000
    C250     C        0.41720    0.12480    0.16200    1.000
    O151     O        0.22750    0.29140    0.54510    1.000
    O152     O        0.28010    0.34330    0.54470    1.000
    O153     O        0.08390    0.41530    0.66220    1.000
    C251     C        0.03960    0.35260    0.67020    1.000
    C252     C        0.24460    0.32660    0.55860    1.000
    C253     C        0.22060    0.35130    0.59300    1.000
    C254     C        0.17900    0.33840    0.60610    1.000
    H51      H        0.16530    0.31480    0.59230    1.000
    C255     C        0.08280    0.37520    0.66200    1.000
    O154     O        0.72750    0.79140    0.04510    1.000
    O155     O        0.78010    0.84330    0.04470    1.000
    O156     O        0.58390    0.91530    0.16220    1.000
    C256     C        0.53960    0.85260    0.17020    1.000
    C257     C        0.74460    0.82660    0.05860    1.000
    C258     C        0.72060    0.85130    0.09300    1.000
    C259     C        0.67900    0.83840    0.10610    1.000
    H52      H        0.66530    0.81480    0.09230    1.000
    C260     C        0.58280    0.87520    0.16200    1.000
    O157     O        0.22750    0.70860    0.45490    1.000
    O158     O        0.28010    0.65670    0.45530    1.000
    O159     O        0.08390    0.58470    0.33780    1.000
    C261     C        0.03960    0.64740    0.32980    1.000
    C262     C        0.24460    0.67340    0.44140    1.000
    C263     C        0.22060    0.64870    0.40700    1.000
    C264     C        0.17900    0.66160    0.39390    1.000
    H53      H        0.16530    0.68520    0.40770    1.000
    C265     C        0.08280    0.62480    0.33800    1.000
    O160     O        0.72750    0.20860    0.95490    1.000
    O161     O        0.78010    0.15670    0.95530    1.000
    O162     O        0.58390    0.08470    0.83780    1.000
    C266     C        0.53960    0.14740    0.82980    1.000
    C267     C        0.74460    0.17340    0.94140    1.000
    C268     C        0.72060    0.14870    0.90700    1.000
    C269     C        0.67900    0.16160    0.89390    1.000
    H54      H        0.66530    0.18520    0.90770    1.000
    C270     C        0.58280    0.12480    0.83800    1.000
    O163     O        0.77250    0.29140    0.45490    1.000
    O164     O        0.71990    0.34330    0.45530    1.000
    O165     O        0.91610    0.41530    0.33780    1.000
    C271     C        0.96040    0.35260    0.32980    1.000
    C272     C        0.75540    0.32660    0.44140    1.000
    C273     C        0.77940    0.35130    0.40700    1.000
    C274     C        0.82100    0.33840    0.39390    1.000
    H55      H        0.83470    0.31480    0.40770    1.000
    C275     C        0.91720    0.37520    0.33800    1.000
    O166     O        0.27250    0.79140    0.95490    1.000
    O167     O        0.21990    0.84330    0.95530    1.000
    O168     O        0.41610    0.91530    0.83780    1.000
    C276     C        0.46040    0.85260    0.82980    1.000
    C277     C        0.25540    0.82660    0.94140    1.000
    C278     C        0.27940    0.85130    0.90700    1.000
    C279     C        0.32100    0.83840    0.89390    1.000
    H56      H        0.33470    0.81480    0.90770    1.000
    C280     C        0.41720    0.87520    0.83800    1.000
    O169     O        0.54510    0.77250    0.70860    1.000
    O170     O        0.54470    0.71990    0.65670    1.000
    O171     O        0.66220    0.91610    0.58470    1.000
    C281     C        0.67020    0.96040    0.64740    1.000
    C282     C        0.55860    0.75540    0.67340    1.000
    C283     C        0.59300    0.77940    0.64870    1.000
    C284     C        0.60610    0.82100    0.66160    1.000
    H57      H        0.59230    0.83470    0.68520    1.000
    C285     C        0.66200    0.91720    0.62480    1.000
    O172     O        0.04510    0.27250    0.20860    1.000
    O173     O        0.04470    0.21990    0.15670    1.000
    O174     O        0.16220    0.41610    0.08470    1.000
    C286     C        0.17020    0.46040    0.14740    1.000
    C287     C        0.05860    0.25540    0.17340    1.000
    C288     C        0.09300    0.27940    0.14870    1.000
    C289     C        0.10610    0.32100    0.16160    1.000
    H58      H        0.09230    0.33470    0.18520    1.000
    C290     C        0.16200    0.41720    0.12480    1.000
    O175     O        0.54510    0.22750    0.29140    1.000
    O176     O        0.54470    0.28010    0.34330    1.000
    O177     O        0.66220    0.08390    0.41530    1.000
    C291     C        0.67020    0.03960    0.35260    1.000
    C292     C        0.55860    0.24460    0.32660    1.000
    C293     C        0.59300    0.22060    0.35130    1.000
    C294     C        0.60610    0.17900    0.33840    1.000
    H59      H        0.59230    0.16530    0.31480    1.000
    C295     C        0.66200    0.08280    0.37520    1.000
    O178     O        0.04510    0.72750    0.79140    1.000
    O179     O        0.04470    0.78010    0.84330    1.000
    O180     O        0.16220    0.58390    0.91530    1.000
    C296     C        0.17020    0.53960    0.85260    1.000
    C297     C        0.05860    0.74460    0.82660    1.000
    C298     C        0.09300    0.72060    0.85130    1.000
    C299     C        0.10610    0.67900    0.83840    1.000
    H60      H        0.09230    0.66530    0.81480    1.000
    C300     C        0.16200    0.58280    0.87520    1.000
    O181     O        0.45490    0.22750    0.70860    1.000
    O182     O        0.45530    0.28010    0.65670    1.000
    O183     O        0.33780    0.08390    0.58470    1.000
    C301     C        0.32980    0.03960    0.64740    1.000
    C302     C        0.44140    0.24460    0.67340    1.000
    C303     C        0.40700    0.22060    0.64870    1.000
    C304     C        0.39390    0.17900    0.66160    1.000
    H61      H        0.40770    0.16530    0.68520    1.000
    C305     C        0.33800    0.08280    0.62480    1.000
    O184     O        0.95490    0.72750    0.20860    1.000
    O185     O        0.95530    0.78010    0.15670    1.000
    O186     O        0.83780    0.58390    0.08470    1.000
    C306     C        0.82980    0.53960    0.14740    1.000
    C307     C        0.94140    0.74460    0.17340    1.000
    C308     C        0.90700    0.72060    0.14870    1.000
    C309     C        0.89390    0.67900    0.16160    1.000
    H62      H        0.90770    0.66530    0.18520    1.000
    C310     C        0.83800    0.58280    0.12480    1.000
    O187     O        0.45490    0.77250    0.29140    1.000
    O188     O        0.45530    0.71990    0.34330    1.000
    O189     O        0.33780    0.91610    0.41530    1.000
    C311     C        0.32980    0.96040    0.35260    1.000
    C312     C        0.44140    0.75540    0.32660    1.000
    C313     C        0.40700    0.77940    0.35130    1.000
    C314     C        0.39390    0.82100    0.33840    1.000
    H63      H        0.40770    0.83470    0.31480    1.000
    C315     C        0.33800    0.91720    0.37520    1.000
    O190     O        0.95490    0.27250    0.79140    1.000
    O191     O        0.95530    0.21990    0.84330    1.000
    O192     O        0.83780    0.41610    0.91530    1.000
    C316     C        0.82980    0.46040    0.85260    1.000
    C317     C        0.94140    0.25540    0.82660    1.000
    C318     C        0.90700    0.27940    0.85130    1.000
    C319     C        0.89390    0.32100    0.83840    1.000
    H64      H        0.90770    0.33470    0.81480    1.000
    C320     C        0.83800    0.41720    0.87520    1.000
    O193     O        0.70860    0.54510    0.77250    1.000
    O194     O        0.65670    0.54470    0.71990    1.000
    O195     O        0.58470    0.66220    0.91610    1.000
    C321     C        0.64740    0.67020    0.96040    1.000
    C322     C        0.67340    0.55860    0.75540    1.000
    C323     C        0.64870    0.59300    0.77940    1.000
    C324     C        0.66160    0.60610    0.82100    1.000
    H65      H        0.68520    0.59230    0.83470    1.000
    C325     C        0.62480    0.66200    0.91720    1.000
    O196     O        0.20860    0.04510    0.27250    1.000
    O197     O        0.15670    0.04470    0.21990    1.000
    O198     O        0.08470    0.16220    0.41610    1.000
    C326     C        0.14740    0.17020    0.46040    1.000
    C327     C        0.17340    0.05860    0.25540    1.000
    C328     C        0.14870    0.09300    0.27940    1.000
    C329     C        0.16160    0.10610    0.32100    1.000
    H66      H        0.18520    0.09230    0.33470    1.000
    C330     C        0.12480    0.16200    0.41720    1.000
    O199     O        0.29140    0.54510    0.22750    1.000
    O200     O        0.34330    0.54470    0.28010    1.000
    O201     O        0.41530    0.66220    0.08390    1.000
    C331     C        0.35260    0.67020    0.03960    1.000
    C332     C        0.32660    0.55860    0.24460    1.000
    C333     C        0.35130    0.59300    0.22060    1.000
    C334     C        0.33840    0.60610    0.17900    1.000
    H67      H        0.31480    0.59230    0.16530    1.000
    C335     C        0.37520    0.66200    0.08280    1.000
    O202     O        0.79140    0.04510    0.72750    1.000
    O203     O        0.84330    0.04470    0.78010    1.000
    O204     O        0.91530    0.16220    0.58390    1.000
    C336     C        0.85260    0.17020    0.53960    1.000
    C337     C        0.82660    0.05860    0.74460    1.000
    C338     C        0.85130    0.09300    0.72060    1.000
    C339     C        0.83840    0.10610    0.67900    1.000
    H68      H        0.81480    0.09230    0.66530    1.000
    C340     C        0.87520    0.16200    0.58280    1.000
    O205     O        0.70860    0.45490    0.22750    1.000
    O206     O        0.65670    0.45530    0.28010    1.000
    O207     O        0.58470    0.33780    0.08390    1.000
    C341     C        0.64740    0.32980    0.03960    1.000
    C342     C        0.67340    0.44140    0.24460    1.000
    C343     C        0.64870    0.40700    0.22060    1.000
    C344     C        0.66160    0.39390    0.17900    1.000
    H69      H        0.68520    0.40770    0.16530    1.000
    C345     C        0.62480    0.33800    0.08280    1.000
    O208     O        0.20860    0.95490    0.72750    1.000
    O209     O        0.15670    0.95530    0.78010    1.000
    O210     O        0.08470    0.83780    0.58390    1.000
    C346     C        0.14740    0.82980    0.53960    1.000
    C347     C        0.17340    0.94140    0.74460    1.000
    C348     C        0.14870    0.90700    0.72060    1.000
    C349     C        0.16160    0.89390    0.67900    1.000
    H70      H        0.18520    0.90770    0.66530    1.000
    C350     C        0.12480    0.83800    0.58280    1.000
    O211     O        0.29140    0.45490    0.77250    1.000
    O212     O        0.34330    0.45530    0.71990    1.000
    O213     O        0.41530    0.33780    0.91610    1.000
    C351     C        0.35260    0.32980    0.96040    1.000
    C352     C        0.32660    0.44140    0.75540    1.000
    C353     C        0.35130    0.40700    0.77940    1.000
    C354     C        0.33840    0.39390    0.82100    1.000
    H71      H        0.31480    0.40770    0.83470    1.000
    C355     C        0.37520    0.33800    0.91720    1.000
    O214     O        0.79140    0.95490    0.27250    1.000
    O215     O        0.84330    0.95530    0.21990    1.000
    O216     O        0.91530    0.83780    0.41610    1.000
    C356     C        0.85260    0.82980    0.46040    1.000
    C357     C        0.82660    0.94140    0.25540    1.000
    C358     C        0.85130    0.90700    0.27940    1.000
    C359     C        0.83840    0.89390    0.32100    1.000
    H72      H        0.81480    0.90770    0.33470    1.000
    C360     C        0.87520    0.83800    0.41720    1.000
    O217     O        0.70860    0.77250    0.45490    1.000
    O218     O        0.65670    0.71990    0.45530    1.000
    O219     O        0.58470    0.91610    0.33780    1.000
    C361     C        0.64740    0.96040    0.32980    1.000
    C362     C        0.67340    0.75540    0.44140    1.000
    C363     C        0.64870    0.77940    0.40700    1.000
    C364     C        0.66160    0.82100    0.39390    1.000
    H73      H        0.68520    0.83470    0.40770    1.000
    C365     C        0.62480    0.91720    0.33800    1.000
    O220     O        0.20860    0.27250    0.95490    1.000
    O221     O        0.15670    0.21990    0.95530    1.000
    O222     O        0.08470    0.41610    0.83780    1.000
    C366     C        0.14740    0.46040    0.82980    1.000
    C367     C        0.17340    0.25540    0.94140    1.000
    C368     C        0.14870    0.27940    0.90700    1.000
    C369     C        0.16160    0.32100    0.89390    1.000
    H74      H        0.18520    0.33470    0.90770    1.000
    C370     C        0.12480    0.41720    0.83800    1.000
    O223     O        0.29140    0.22750    0.45490    1.000
    O224     O        0.34330    0.28010    0.45530    1.000
    O225     O        0.41530    0.08390    0.33780    1.000
    C371     C        0.35260    0.03960    0.32980    1.000
    C372     C        0.32660    0.24460    0.44140    1.000
    C373     C        0.35130    0.22060    0.40700    1.000
    C374     C        0.33840    0.17900    0.39390    1.000
    H75      H        0.31480    0.16530    0.40770    1.000
    C375     C        0.37520    0.08280    0.33800    1.000
    O226     O        0.79140    0.72750    0.95490    1.000
    O227     O        0.84330    0.78010    0.95530    1.000
    O228     O        0.91530    0.58390    0.83780    1.000
    C376     C        0.85260    0.53960    0.82980    1.000
    C377     C        0.82660    0.74460    0.94140    1.000
    C378     C        0.85130    0.72060    0.90700    1.000
    C379     C        0.83840    0.67900    0.89390    1.000
    H76      H        0.81480    0.66530    0.90770    1.000
    C380     C        0.87520    0.58280    0.83800    1.000
    O229     O        0.70860    0.22750    0.54510    1.000
    O230     O        0.65670    0.28010    0.54470    1.000
    O231     O        0.58470    0.08390    0.66220    1.000
    C381     C        0.64740    0.03960    0.67020    1.000
    C382     C        0.67340    0.24460    0.55860    1.000
    C383     C        0.64870    0.22060    0.59300    1.000
    C384     C        0.66160    0.17900    0.60610    1.000
    H77      H        0.68520    0.16530    0.59230    1.000
    C385     C        0.62480    0.08280    0.66200    1.000
    O232     O        0.20860    0.72750    0.04510    1.000
    O233     O        0.15670    0.78010    0.04470    1.000
    O234     O        0.08470    0.58390    0.16220    1.000
    C386     C        0.14740    0.53960    0.17020    1.000
    C387     C        0.17340    0.74460    0.05860    1.000
    C388     C        0.14870    0.72060    0.09300    1.000
    C389     C        0.16160    0.67900    0.10610    1.000
    H78      H        0.18520    0.66530    0.09230    1.000
    C390     C        0.12480    0.58280    0.16200    1.000
    O235     O        0.29140    0.77250    0.54510    1.000
    O236     O        0.34330    0.71990    0.54470    1.000
    O237     O        0.41530    0.91610    0.66220    1.000
    C391     C        0.35260    0.96040    0.67020    1.000
    C392     C        0.32660    0.75540    0.55860    1.000
    C393     C        0.35130    0.77940    0.59300    1.000
    C394     C        0.33840    0.82100    0.60610    1.000
    H79      H        0.31480    0.83470    0.59230    1.000
    C395     C        0.37520    0.91720    0.66200    1.000
    O238     O        0.79140    0.27250    0.04510    1.000
    O239     O        0.84330    0.21990    0.04470    1.000
    O240     O        0.91530    0.41610    0.16220    1.000
    C396     C        0.85260    0.46040    0.17020    1.000
    C397     C        0.82660    0.25540    0.05860    1.000
    C398     C        0.85130    0.27940    0.09300    1.000
    C399     C        0.83840    0.32100    0.10610    1.000
    H80      H        0.81480    0.33470    0.09230    1.000
    C400     C        0.87520    0.41720    0.16200    1.000
    O241     O        0.77250    0.54510    0.29140    1.000
    O242     O        0.71990    0.54470    0.34330    1.000
    O243     O        0.91610    0.66220    0.41530    1.000
    C401     C        0.96040    0.67020    0.35260    1.000
    C402     C        0.75540    0.55860    0.32660    1.000
    C403     C        0.77940    0.59300    0.35130    1.000
    C404     C        0.82100    0.60610    0.33840    1.000
    H81      H        0.83470    0.59230    0.31480    1.000
    C405     C        0.91720    0.66200    0.37520    1.000
    O244     O        0.27250    0.04510    0.79140    1.000
    O245     O        0.21990    0.04470    0.84330    1.000
    O246     O        0.41610    0.16220    0.91530    1.000
    C406     C        0.46040    0.17020    0.85260    1.000
    C407     C        0.25540    0.05860    0.82660    1.000
    C408     C        0.27940    0.09300    0.85130    1.000
    C409     C        0.32100    0.10610    0.83840    1.000
    H82      H        0.33470    0.09230    0.81480    1.000
    C410     C        0.41720    0.16200    0.87520    1.000
    O247     O        0.22750    0.54510    0.70860    1.000
    O248     O        0.28010    0.54470    0.65670    1.000
    O249     O        0.08390    0.66220    0.58470    1.000
    C411     C        0.03960    0.67020    0.64740    1.000
    C412     C        0.24460    0.55860    0.67340    1.000
    C413     C        0.22060    0.59300    0.64870    1.000
    C414     C        0.17900    0.60610    0.66160    1.000
    H83      H        0.16530    0.59230    0.68520    1.000
    C415     C        0.08280    0.66200    0.62480    1.000
    O250     O        0.72750    0.04510    0.20860    1.000
    O251     O        0.78010    0.04470    0.15670    1.000
    O252     O        0.58390    0.16220    0.08470    1.000
    C416     C        0.53960    0.17020    0.14740    1.000
    C417     C        0.74460    0.05860    0.17340    1.000
    C418     C        0.72060    0.09300    0.14870    1.000
    C419     C        0.67900    0.10610    0.16160    1.000
    H84      H        0.66530    0.09230    0.18520    1.000
    C420     C        0.58280    0.16200    0.12480    1.000
    O253     O        0.22750    0.45490    0.29140    1.000
    O254     O        0.28010    0.45530    0.34330    1.000
    O255     O        0.08390    0.33780    0.41530    1.000
    C421     C        0.03960    0.32980    0.35260    1.000
    C422     C        0.24460    0.44140    0.32660    1.000
    C423     C        0.22060    0.40700    0.35130    1.000
    C424     C        0.17900    0.39390    0.33840    1.000
    H85      H        0.16530    0.40770    0.31480    1.000
    C425     C        0.08280    0.33800    0.37520    1.000
    O256     O        0.72750    0.95490    0.79140    1.000
    O257     O        0.78010    0.95530    0.84330    1.000
    O258     O        0.58390    0.83780    0.91530    1.000
    C426     C        0.53960    0.82980    0.85260    1.000
    C427     C        0.74460    0.94140    0.82660    1.000
    C428     C        0.72060    0.90700    0.85130    1.000
    C429     C        0.67900    0.89390    0.83840    1.000
    H86      H        0.66530    0.90770    0.81480    1.000
    C430     C        0.58280    0.83800    0.87520    1.000
    O259     O        0.77250    0.45490    0.70860    1.000
    O260     O        0.71990    0.45530    0.65670    1.000
    O261     O        0.91610    0.33780    0.58470    1.000
    C431     C        0.96040    0.32980    0.64740    1.000
    C432     C        0.75540    0.44140    0.67340    1.000
    C433     C        0.77940    0.40700    0.64870    1.000
    C434     C        0.82100    0.39390    0.66160    1.000
    H87      H        0.83470    0.40770    0.68520    1.000
    C435     C        0.91720    0.33800    0.62480    1.000
    O262     O        0.27250    0.95490    0.20860    1.000
    O263     O        0.21990    0.95530    0.15670    1.000
    O264     O        0.41610    0.83780    0.08470    1.000
    C436     C        0.46040    0.82980    0.14740    1.000
    C437     C        0.25540    0.94140    0.17340    1.000
    C438     C        0.27940    0.90700    0.14870    1.000
    C439     C        0.32100    0.89390    0.16160    1.000
    H88      H        0.33470    0.90770    0.18520    1.000
    C440     C        0.41720    0.83800    0.12480    1.000
    O265     O        0.54510    0.70860    0.22750    1.000
    O266     O        0.54470    0.65670    0.28010    1.000
    O267     O        0.66220    0.58470    0.08390    1.000
    C441     C        0.67020    0.64740    0.03960    1.000
    C442     C        0.55860    0.67340    0.24460    1.000
    C443     C        0.59300    0.64870    0.22060    1.000
    C444     C        0.60610    0.66160    0.17900    1.000
    H89      H        0.59230    0.68520    0.16530    1.000
    C445     C        0.66200    0.62480    0.08280    1.000
    O268     O        0.04510    0.20860    0.72750    1.000
    O269     O        0.04470    0.15670    0.78010    1.000
    O270     O        0.16220    0.08470    0.58390    1.000
    C446     C        0.17020    0.14740    0.53960    1.000
    C447     C        0.05860    0.17340    0.74460    1.000
    C448     C        0.09300    0.14870    0.72060    1.000
    C449     C        0.10610    0.16160    0.67900    1.000
    H90      H        0.09230    0.18520    0.66530    1.000
    C450     C        0.16200    0.12480    0.58280    1.000
    O271     O        0.54510    0.29140    0.77250    1.000
    O272     O        0.54470    0.34330    0.71990    1.000
    O273     O        0.66220    0.41530    0.91610    1.000
    C451     C        0.67020    0.35260    0.96040    1.000
    C452     C        0.55860    0.32660    0.75540    1.000
    C453     C        0.59300    0.35130    0.77940    1.000
    C454     C        0.60610    0.33840    0.82100    1.000
    H91      H        0.59230    0.31480    0.83470    1.000
    C455     C        0.66200    0.37520    0.91720    1.000
    O274     O        0.04510    0.79140    0.27250    1.000
    O275     O        0.04470    0.84330    0.21990    1.000
    O276     O        0.16220    0.91530    0.41610    1.000
    C456     C        0.17020    0.85260    0.46040    1.000
    C457     C        0.05860    0.82660    0.25540    1.000
    C458     C        0.09300    0.85130    0.27940    1.000
    C459     C        0.10610    0.83840    0.32100    1.000
    H92      H        0.09230    0.81480    0.33470    1.000
    C460     C        0.16200    0.87520    0.41720    1.000
    O277     O        0.45490    0.70860    0.77250    1.000
    O278     O        0.45530    0.65670    0.71990    1.000
    O279     O        0.33780    0.58470    0.91610    1.000
    C461     C        0.32980    0.64740    0.96040    1.000
    C462     C        0.44140    0.67340    0.75540    1.000
    C463     C        0.40700    0.64870    0.77940    1.000
    C464     C        0.39390    0.66160    0.82100    1.000
    H93      H        0.40770    0.68520    0.83470    1.000
    C465     C        0.33800    0.62480    0.91720    1.000
    O280     O        0.95490    0.20860    0.27250    1.000
    O281     O        0.95530    0.15670    0.21990    1.000
    O282     O        0.83780    0.08470    0.41610    1.000
    C466     C        0.82980    0.14740    0.46040    1.000
    C467     C        0.94140    0.17340    0.25540    1.000
    C468     C        0.90700    0.14870    0.27940    1.000
    C469     C        0.89390    0.16160    0.32100    1.000
    H94      H        0.90770    0.18520    0.33470    1.000
    C470     C        0.83800    0.12480    0.41720    1.000
    O283     O        0.45490    0.29140    0.22750    1.000
    O284     O        0.45530    0.34330    0.28010    1.000
    O285     O        0.33780    0.41530    0.08390    1.000
    C471     C        0.32980    0.35260    0.03960    1.000
    C472     C        0.44140    0.32660    0.24460    1.000
    C473     C        0.40700    0.35130    0.22060    1.000
    C474     C        0.39390    0.33840    0.17900    1.000
    H95      H        0.40770    0.31480    0.16530    1.000
    C475     C        0.33800    0.37520    0.08280    1.000
    O286     O        0.95490    0.79140    0.72750    1.000
    O287     O        0.95530    0.84330    0.78010    1.000
    O288     O        0.83780    0.91530    0.58390    1.000
    C476     C        0.82980    0.85260    0.53960    1.000
    C477     C        0.94140    0.82660    0.74460    1.000
    C478     C        0.90700    0.85130    0.72060    1.000
    C479     C        0.89390    0.83840    0.67900    1.000
    H96      H        0.90770    0.81480    0.66530    1.000
    C480     C        0.83800    0.87520    0.58280    1.000
    Cu1      Cu       0.00000    0.18366    0.18366    1.000
    Cu2      Cu       0.00000    0.24516    0.24516    1.000
    N1       N        0.00000    0.29500    0.29500    1.000
    Cu3      Cu       0.50000    0.68366    0.68366    1.000
    Cu4      Cu       0.50000    0.74516    0.74516    1.000
    N2       N        0.50000    0.79500    0.79500    1.000
    Cu5      Cu       0.00000    0.81634    0.18366    1.000
    Cu6      Cu       0.00000    0.75484    0.24516    1.000
    N3       N        0.00000    0.70500    0.29500    1.000
    Cu7      Cu       0.50000    0.31634    0.68366    1.000
    Cu8      Cu       0.50000    0.25484    0.74516    1.000
    N4       N        0.50000    0.20500    0.79500    1.000
    Cu9      Cu       0.00000    0.18366    0.81634    1.000
    Cu10     Cu       0.00000    0.24516    0.75484    1.000
    N5       N        0.00000    0.29500    0.70500    1.000
    Cu11     Cu       0.50000    0.68366    0.31634    1.000
    Cu12     Cu       0.50000    0.74516    0.25484    1.000
    N6       N        0.50000    0.79500    0.20500    1.000
    Cu13     Cu       0.00000    0.81634    0.81634    1.000
    Cu14     Cu       0.00000    0.75484    0.75484    1.000
    N7       N        0.00000    0.70500    0.70500    1.000
    Cu15     Cu       0.50000    0.31634    0.31634    1.000
    Cu16     Cu       0.50000    0.25484    0.25484    1.000
    N8       N        0.50000    0.20500    0.20500    1.000
    Cu17     Cu       0.18366    0.00000    0.18366    1.000
    Cu18     Cu       0.24516    0.00000    0.24516    1.000
    N9       N        0.29500    0.00000    0.29500    1.000
    Cu19     Cu       0.68366    0.50000    0.68366    1.000
    Cu20     Cu       0.74516    0.50000    0.74516    1.000
    N10      N        0.79500    0.50000    0.79500    1.000
    Cu21     Cu       0.18366    0.00000    0.81634    1.000
    Cu22     Cu       0.24516    0.00000    0.75484    1.000
    N11      N        0.29500    0.00000    0.70500    1.000
    Cu23     Cu       0.68366    0.50000    0.31634    1.000
    Cu24     Cu       0.74516    0.50000    0.25484    1.000
    N12      N        0.79500    0.50000    0.20500    1.000
    Cu25     Cu       0.81634    0.00000    0.18366    1.000
    Cu26     Cu       0.75484    0.00000    0.24516    1.000
    N13      N        0.70500    0.00000    0.29500    1.000
    Cu27     Cu       0.31634    0.50000    0.68366    1.000
    Cu28     Cu       0.25484    0.50000    0.74516    1.000
    N14      N        0.20500    0.50000    0.79500    1.000
    Cu29     Cu       0.81634    0.00000    0.81634    1.000
    Cu30     Cu       0.75484    0.00000    0.75484    1.000
    N15      N        0.70500    0.00000    0.70500    1.000
    Cu31     Cu       0.31634    0.50000    0.31634    1.000
    Cu32     Cu       0.25484    0.50000    0.25484    1.000
    N16      N        0.20500    0.50000    0.20500    1.000
    Cu33     Cu       0.18366    0.18366    0.00000    1.000
    Cu34     Cu       0.24516    0.24516    0.00000    1.000
    N17      N        0.29500    0.29500    0.00000    1.000
    Cu35     Cu       0.68366    0.68366    0.50000    1.000
    Cu36     Cu       0.74516    0.74516    0.50000    1.000
    N18      N        0.79500    0.79500    0.50000    1.000
    Cu37     Cu       0.81634    0.18366    0.00000    1.000
    Cu38     Cu       0.75484    0.24516    0.00000    1.000
    N19      N        0.70500    0.29500    0.00000    1.000
    Cu39     Cu       0.31634    0.68366    0.50000    1.000
    Cu40     Cu       0.25484    0.74516    0.50000    1.000
    N20      N        0.20500    0.79500    0.50000    1.000
    Cu41     Cu       0.18366    0.81634    0.00000    1.000
    Cu42     Cu       0.24516    0.75484    0.00000    1.000
    N21      N        0.29500    0.70500    0.00000    1.000
    Cu43     Cu       0.68366    0.31634    0.50000    1.000
    Cu44     Cu       0.74516    0.25484    0.50000    1.000
    N22      N        0.79500    0.20500    0.50000    1.000
    Cu45     Cu       0.81634    0.81634    0.00000    1.000
    Cu46     Cu       0.75484    0.75484    0.00000    1.000
    N23      N        0.70500    0.70500    0.00000    1.000
    Cu47     Cu       0.31634    0.31634    0.50000    1.000
    Cu48     Cu       0.25484    0.25484    0.50000    1.000
    N24      N        0.20500    0.20500    0.50000    1.000
    N25      N        0.11490    0.34770    0.34770    1.000
    H97      H        0.11550    0.32680    0.32680    1.000
    C481     C        0.03700    0.30940    0.30940    1.000
    H98      H        0.06500    0.29990    0.29990    1.000
    C482     C        0.24240    0.38450    0.38450    1.000
    H99      H        0.27130    0.39160    0.39160    1.000
    C483     C        0.15780    0.36050    0.36050    1.000
    N26      N        0.61490    0.84770    0.84770    1.000
    H100     H        0.61550    0.82680    0.82680    1.000
    C484     C        0.53700    0.80940    0.80940    1.000
    H101     H        0.56500    0.79990    0.79990    1.000
    C485     C        0.74240    0.88450    0.88450    1.000
    H102     H        0.77130    0.89160    0.89160    1.000
    C486     C        0.65780    0.86050    0.86050    1.000
    N27      N        0.88510    0.65230    0.34770    1.000
    H103     H        0.88450    0.67320    0.32680    1.000
    C487     C        0.96300    0.69060    0.30940    1.000
    H104     H        0.93500    0.70010    0.29990    1.000
    C488     C        0.75760    0.61550    0.38450    1.000
    H105     H        0.72870    0.60840    0.39160    1.000
    C489     C        0.84220    0.63950    0.36050    1.000
    N28      N        0.38510    0.15230    0.84770    1.000
    H106     H        0.38450    0.17320    0.82680    1.000
    C490     C        0.46300    0.19060    0.80940    1.000
    H107     H        0.43500    0.20010    0.79990    1.000
    C491     C        0.25760    0.11550    0.88450    1.000
    H108     H        0.22870    0.10840    0.89160    1.000
    C492     C        0.34220    0.13950    0.86050    1.000
    N29      N        0.88510    0.34770    0.65230    1.000
    H109     H        0.88450    0.32680    0.67320    1.000
    C493     C        0.96300    0.30940    0.69060    1.000
    H110     H        0.93500    0.29990    0.70010    1.000
    C494     C        0.75760    0.38450    0.61550    1.000
    H111     H        0.72870    0.39160    0.60840    1.000
    C495     C        0.84220    0.36050    0.63950    1.000
    N30      N        0.38510    0.84770    0.15230    1.000
    H112     H        0.38450    0.82680    0.17320    1.000
    C496     C        0.46300    0.80940    0.19060    1.000
    H113     H        0.43500    0.79990    0.20010    1.000
    C497     C        0.25760    0.88450    0.11550    1.000
    H114     H        0.22870    0.89160    0.10840    1.000
    C498     C        0.34220    0.86050    0.13950    1.000
    N31      N        0.11490    0.65230    0.65230    1.000
    H115     H        0.11550    0.67320    0.67320    1.000
    C499     C        0.03700    0.69060    0.69060    1.000
    H116     H        0.06500    0.70010    0.70010    1.000
    C500     C        0.24240    0.61550    0.61550    1.000
    H117     H        0.27130    0.60840    0.60840    1.000
    C501     C        0.15780    0.63950    0.63950    1.000
    N32      N        0.61490    0.15230    0.15230    1.000
    H118     H        0.61550    0.17320    0.17320    1.000
    C502     C        0.53700    0.19060    0.19060    1.000
    H119     H        0.56500    0.20010    0.20010    1.000
    C503     C        0.74240    0.11550    0.11550    1.000
    H120     H        0.77130    0.10840    0.10840    1.000
    C504     C        0.65780    0.13950    0.13950    1.000
    N33      N        0.34770    0.11490    0.34770    1.000
    H121     H        0.32680    0.11550    0.32680    1.000
    C505     C        0.30940    0.03700    0.30940    1.000
    H122     H        0.29990    0.06500    0.29990    1.000
    C506     C        0.38450    0.24240    0.38450    1.000
    H123     H        0.39160    0.27130    0.39160    1.000
    C507     C        0.36050    0.15780    0.36050    1.000
    N34      N        0.84770    0.61490    0.84770    1.000
    H124     H        0.82680    0.61550    0.82680    1.000
    C508     C        0.80940    0.53700    0.80940    1.000
    H125     H        0.79990    0.56500    0.79990    1.000
    C509     C        0.88450    0.74240    0.88450    1.000
    H126     H        0.89160    0.77130    0.89160    1.000
    C510     C        0.86050    0.65780    0.86050    1.000
    N35      N        0.34770    0.88510    0.65230    1.000
    H127     H        0.32680    0.88450    0.67320    1.000
    C511     C        0.30940    0.96300    0.69060    1.000
    H128     H        0.29990    0.93500    0.70010    1.000
    C512     C        0.38450    0.75760    0.61550    1.000
    H129     H        0.39160    0.72870    0.60840    1.000
    C513     C        0.36050    0.84220    0.63950    1.000
    N36      N        0.84770    0.38510    0.15230    1.000
    H130     H        0.82680    0.38450    0.17320    1.000
    C514     C        0.80940    0.46300    0.19060    1.000
    H131     H        0.79990    0.43500    0.20010    1.000
    C515     C        0.88450    0.25760    0.11550    1.000
    H132     H        0.89160    0.22870    0.10840    1.000
    C516     C        0.86050    0.34220    0.13950    1.000
    N37      N        0.65230    0.88510    0.34770    1.000
    H133     H        0.67320    0.88450    0.32680    1.000
    C517     C        0.69060    0.96300    0.30940    1.000
    H134     H        0.70010    0.93500    0.29990    1.000
    C518     C        0.61550    0.75760    0.38450    1.000
    H135     H        0.60840    0.72870    0.39160    1.000
    C519     C        0.63950    0.84220    0.36050    1.000
    N38      N        0.15230    0.38510    0.84770    1.000
    H136     H        0.17320    0.38450    0.82680    1.000
    C520     C        0.19060    0.46300    0.80940    1.000
    H137     H        0.20010    0.43500    0.79990    1.000
    C521     C        0.11550    0.25760    0.88450    1.000
    H138     H        0.10840    0.22870    0.89160    1.000
    C522     C        0.13950    0.34220    0.86050    1.000
    N39      N        0.65230    0.11490    0.65230    1.000
    H139     H        0.67320    0.11550    0.67320    1.000
    C523     C        0.69060    0.03700    0.69060    1.000
    H140     H        0.70010    0.06500    0.70010    1.000
    C524     C        0.61550    0.24240    0.61550    1.000
    H141     H        0.60840    0.27130    0.60840    1.000
    C525     C        0.63950    0.15780    0.63950    1.000
    N40      N        0.15230    0.61490    0.15230    1.000
    H142     H        0.17320    0.61550    0.17320    1.000
    C526     C        0.19060    0.53700    0.19060    1.000
    H143     H        0.20010    0.56500    0.20010    1.000
    C527     C        0.11550    0.74240    0.11550    1.000
    H144     H        0.10840    0.77130    0.10840    1.000
    C528     C        0.13950    0.65780    0.13950    1.000
    N41      N        0.34770    0.34770    0.11490    1.000
    H145     H        0.32680    0.32680    0.11550    1.000
    C529     C        0.30940    0.30940    0.03700    1.000
    H146     H        0.29990    0.29990    0.06500    1.000
    C530     C        0.38450    0.38450    0.24240    1.000
    H147     H        0.39160    0.39160    0.27130    1.000
    C531     C        0.36050    0.36050    0.15780    1.000
    N42      N        0.84770    0.84770    0.61490    1.000
    H148     H        0.82680    0.82680    0.61550    1.000
    C532     C        0.80940    0.80940    0.53700    1.000
    H149     H        0.79990    0.79990    0.56500    1.000
    C533     C        0.88450    0.88450    0.74240    1.000
    H150     H        0.89160    0.89160    0.77130    1.000
    C534     C        0.86050    0.86050    0.65780    1.000
    N43      N        0.65230    0.34770    0.88510    1.000
    H151     H        0.67320    0.32680    0.88450    1.000
    C535     C        0.69060    0.30940    0.96300    1.000
    H152     H        0.70010    0.29990    0.93500    1.000
    C536     C        0.61550    0.38450    0.75760    1.000
    H153     H        0.60840    0.39160    0.72870    1.000
    C537     C        0.63950    0.36050    0.84220    1.000
    N44      N        0.15230    0.84770    0.38510    1.000
    H154     H        0.17320    0.82680    0.38450    1.000
    C538     C        0.19060    0.80940    0.46300    1.000
    H155     H        0.20010    0.79990    0.43500    1.000
    C539     C        0.11550    0.88450    0.25760    1.000
    H156     H        0.10840    0.89160    0.22870    1.000
    C540     C        0.13950    0.86050    0.34220    1.000
    N45      N        0.34770    0.65230    0.88510    1.000
    H157     H        0.32680    0.67320    0.88450    1.000
    C541     C        0.30940    0.69060    0.96300    1.000
    H158     H        0.29990    0.70010    0.93500    1.000
    C542     C        0.38450    0.61550    0.75760    1.000
    H159     H        0.39160    0.60840    0.72870    1.000
    C543     C        0.36050    0.63950    0.84220    1.000
    N46      N        0.84770    0.15230    0.38510    1.000
    H160     H        0.82680    0.17320    0.38450    1.000
    C544     C        0.80940    0.19060    0.46300    1.000
    H161     H        0.79990    0.20010    0.43500    1.000
    C545     C        0.88450    0.11550    0.25760    1.000
    H162     H        0.89160    0.10840    0.22870    1.000
    C546     C        0.86050    0.13950    0.34220    1.000
    N47      N        0.65230    0.65230    0.11490    1.000
    H163     H        0.67320    0.67320    0.11550    1.000
    C547     C        0.69060    0.69060    0.03700    1.000
    H164     H        0.70010    0.70010    0.06500    1.000
    C548     C        0.61550    0.61550    0.24240    1.000
    H165     H        0.60840    0.60840    0.27130    1.000
    C549     C        0.63950    0.63950    0.15780    1.000
    N48      N        0.15230    0.15230    0.61490    1.000
    H166     H        0.17320    0.17320    0.61550    1.000
    C550     C        0.19060    0.19060    0.53700    1.000
    H167     H        0.20010    0.20010    0.56500    1.000
    C551     C        0.11550    0.11550    0.74240    1.000
    H168     H        0.10840    0.10840    0.77130    1.000
    C552     C        0.13950    0.13950    0.65780    1.000
    N49      N        0.34770    0.11490    0.65230    1.000
    H169     H        0.32680    0.11550    0.67320    1.000
    C553     C        0.30940    0.03700    0.69060    1.000
    H170     H        0.29990    0.06500    0.70010    1.000
    C554     C        0.38450    0.24240    0.61550    1.000
    H171     H        0.39160    0.27130    0.60840    1.000
    C555     C        0.36050    0.15780    0.63950    1.000
    N50      N        0.84770    0.61490    0.15230    1.000
    H172     H        0.82680    0.61550    0.17320    1.000
    C556     C        0.80940    0.53700    0.19060    1.000
    H173     H        0.79990    0.56500    0.20010    1.000
    C557     C        0.88450    0.74240    0.11550    1.000
    H174     H        0.89160    0.77130    0.10840    1.000
    C558     C        0.86050    0.65780    0.13950    1.000
    N51      N        0.65230    0.88510    0.65230    1.000
    H175     H        0.67320    0.88450    0.67320    1.000
    C559     C        0.69060    0.96300    0.69060    1.000
    H176     H        0.70010    0.93500    0.70010    1.000
    C560     C        0.61550    0.75760    0.61550    1.000
    H177     H        0.60840    0.72870    0.60840    1.000
    C561     C        0.63950    0.84220    0.63950    1.000
    N52      N        0.15230    0.38510    0.15230    1.000
    H178     H        0.17320    0.38450    0.17320    1.000
    C562     C        0.19060    0.46300    0.19060    1.000
    H179     H        0.20010    0.43500    0.20010    1.000
    C563     C        0.11550    0.25760    0.11550    1.000
    H180     H        0.10840    0.22870    0.10840    1.000
    C564     C        0.13950    0.34220    0.13950    1.000
    N53      N        0.34770    0.88510    0.34770    1.000
    H181     H        0.32680    0.88450    0.32680    1.000
    C565     C        0.30940    0.96300    0.30940    1.000
    H182     H        0.29990    0.93500    0.29990    1.000
    C566     C        0.38450    0.75760    0.38450    1.000
    H183     H        0.39160    0.72870    0.39160    1.000
    C567     C        0.36050    0.84220    0.36050    1.000
    N54      N        0.84770    0.38510    0.84770    1.000
    H184     H        0.82680    0.38450    0.82680    1.000
    C568     C        0.80940    0.46300    0.80940    1.000
    H185     H        0.79990    0.43500    0.79990    1.000
    C569     C        0.88450    0.25760    0.88450    1.000
    H186     H        0.89160    0.22870    0.89160    1.000
    C570     C        0.86050    0.34220    0.86050    1.000
    N55      N        0.65230    0.11490    0.34770    1.000
    H187     H        0.67320    0.11550    0.32680    1.000
    C571     C        0.69060    0.03700    0.30940    1.000
    H188     H        0.70010    0.06500    0.29990    1.000
    C572     C        0.61550    0.24240    0.38450    1.000
    H189     H        0.60840    0.27130    0.39160    1.000
    C573     C        0.63950    0.15780    0.36050    1.000
    N56      N        0.15230    0.61490    0.84770    1.000
    H190     H        0.17320    0.61550    0.82680    1.000
    C574     C        0.19060    0.53700    0.80940    1.000
    H191     H        0.20010    0.56500    0.79990    1.000
    C575     C        0.11550    0.74240    0.88450    1.000
    H192     H        0.10840    0.77130    0.89160    1.000
    C576     C        0.13950    0.65780    0.86050    1.000
    N57      N        0.11490    0.34770    0.65230    1.000
    H193     H        0.11550    0.32680    0.67320    1.000
    C577     C        0.03700    0.30940    0.69060    1.000
    H194     H        0.06500    0.29990    0.70010    1.000
    C578     C        0.24240    0.38450    0.61550    1.000
    H195     H        0.27130    0.39160    0.60840    1.000
    C579     C        0.15780    0.36050    0.63950    1.000
    N58      N        0.61490    0.84770    0.15230    1.000
    H196     H        0.61550    0.82680    0.17320    1.000
    C580     C        0.53700    0.80940    0.19060    1.000
    H197     H        0.56500    0.79990    0.20010    1.000
    C581     C        0.74240    0.88450    0.11550    1.000
    H198     H        0.77130    0.89160    0.10840    1.000
    C582     C        0.65780    0.86050    0.13950    1.000
    N59      N        0.88510    0.34770    0.34770    1.000
    H199     H        0.88450    0.32680    0.32680    1.000
    C583     C        0.96300    0.30940    0.30940    1.000
    H200     H        0.93500    0.29990    0.29990    1.000
    C584     C        0.75760    0.38450    0.38450    1.000
    H201     H        0.72870    0.39160    0.39160    1.000
    C585     C        0.84220    0.36050    0.36050    1.000
    N60      N        0.38510    0.84770    0.84770    1.000
    H202     H        0.38450    0.82680    0.82680    1.000
    C586     C        0.46300    0.80940    0.80940    1.000
    H203     H        0.43500    0.79990    0.79990    1.000
    C587     C        0.25760    0.88450    0.88450    1.000
    H204     H        0.22870    0.89160    0.89160    1.000
    C588     C        0.34220    0.86050    0.86050    1.000
    N61      N        0.88510    0.65230    0.65230    1.000
    H205     H        0.88450    0.67320    0.67320    1.000
    C589     C        0.96300    0.69060    0.69060    1.000
    H206     H        0.93500    0.70010    0.70010    1.000
    C590     C        0.75760    0.61550    0.61550    1.000
    H207     H        0.72870    0.60840    0.60840    1.000
    C591     C        0.84220    0.63950    0.63950    1.000
    N62      N        0.38510    0.15230    0.15230    1.000
    H208     H        0.38450    0.17320    0.17320    1.000
    C592     C        0.46300    0.19060    0.19060    1.000
    H209     H        0.43500    0.20010    0.20010    1.000
    C593     C        0.25760    0.11550    0.11550    1.000
    H210     H        0.22870    0.10840    0.10840    1.000
    C594     C        0.34220    0.13950    0.13950    1.000
    N63      N        0.11490    0.65230    0.34770    1.000
    H211     H        0.11550    0.67320    0.32680    1.000
    C595     C        0.03700    0.69060    0.30940    1.000
    H212     H        0.06500    0.70010    0.29990    1.000
    C596     C        0.24240    0.61550    0.38450    1.000
    H213     H        0.27130    0.60840    0.39160    1.000
    C597     C        0.15780    0.63950    0.36050    1.000
    N64      N        0.61490    0.15230    0.84770    1.000
    H214     H        0.61550    0.17320    0.82680    1.000
    C598     C        0.53700    0.19060    0.80940    1.000
    H215     H        0.56500    0.20010    0.79990    1.000
    C599     C        0.74240    0.11550    0.88450    1.000
    H216     H        0.77130    0.10840    0.89160    1.000
    C600     C        0.65780    0.13950    0.86050    1.000
    N65      N        0.34770    0.34770    0.88510    1.000
    H217     H        0.32680    0.32680    0.88450    1.000
    C601     C        0.30940    0.30940    0.96300    1.000
    H218     H        0.29990    0.29990    0.93500    1.000
    C602     C        0.38450    0.38450    0.75760    1.000
    H219     H        0.39160    0.39160    0.72870    1.000
    C603     C        0.36050    0.36050    0.84220    1.000
    N66      N        0.84770    0.84770    0.38510    1.000
    H220     H        0.82680    0.82680    0.38450    1.000
    C604     C        0.80940    0.80940    0.46300    1.000
    H221     H        0.79990    0.79990    0.43500    1.000
    C605     C        0.88450    0.88450    0.25760    1.000
    H222     H        0.89160    0.89160    0.22870    1.000
    C606     C        0.86050    0.86050    0.34220    1.000
    N67      N        0.34770    0.65230    0.11490    1.000
    H223     H        0.32680    0.67320    0.11550    1.000
    C607     C        0.30940    0.69060    0.03700    1.000
    H224     H        0.29990    0.70010    0.06500    1.000
    C608     C        0.38450    0.61550    0.24240    1.000
    H225     H        0.39160    0.60840    0.27130    1.000
    C609     C        0.36050    0.63950    0.15780    1.000
    N68      N        0.84770    0.15230    0.61490    1.000
    H226     H        0.82680    0.17320    0.61550    1.000
    C610     C        0.80940    0.19060    0.53700    1.000
    H227     H        0.79990    0.20010    0.56500    1.000
    C611     C        0.88450    0.11550    0.74240    1.000
    H228     H        0.89160    0.10840    0.77130    1.000
    C612     C        0.86050    0.13950    0.65780    1.000
    N69      N        0.65230    0.34770    0.11490    1.000
    H229     H        0.67320    0.32680    0.11550    1.000
    C613     C        0.69060    0.30940    0.03700    1.000
    H230     H        0.70010    0.29990    0.06500    1.000
    C614     C        0.61550    0.38450    0.24240    1.000
    H231     H        0.60840    0.39160    0.27130    1.000
    C615     C        0.63950    0.36050    0.15780    1.000
    N70      N        0.15230    0.84770    0.61490    1.000
    H232     H        0.17320    0.82680    0.61550    1.000
    C616     C        0.19060    0.80940    0.53700    1.000
    H233     H        0.20010    0.79990    0.56500    1.000
    C617     C        0.11550    0.88450    0.74240    1.000
    H234     H        0.10840    0.89160    0.77130    1.000
    C618     C        0.13950    0.86050    0.65780    1.000
    N71      N        0.65230    0.65230    0.88510    1.000
    H235     H        0.67320    0.67320    0.88450    1.000
    C619     C        0.69060    0.69060    0.96300    1.000
    H236     H        0.70010    0.70010    0.93500    1.000
    C620     C        0.61550    0.61550    0.75760    1.000
    H237     H        0.60840    0.60840    0.72870    1.000
    C621     C        0.63950    0.63950    0.84220    1.000
    N72      N        0.15230    0.15230    0.38510    1.000
    H238     H        0.17320    0.17320    0.38450    1.000
    C622     C        0.19060    0.19060    0.46300    1.000
    H239     H        0.20010    0.20010    0.43500    1.000
    C623     C        0.11550    0.11550    0.25760    1.000
    H240     H        0.10840    0.10840    0.22870    1.000
    C624     C        0.13950    0.13950    0.34220    1.000
    H241     H        0.00000    0.38900    0.35730    1.000
    C625     C        0.00000    0.37140    0.34020    1.000
    H242     H        0.50000    0.88900    0.85730    1.000
    C626     C        0.50000    0.87140    0.84020    1.000
    H243     H        0.00000    0.61100    0.35730    1.000
    C627     C        0.00000    0.62860    0.34020    1.000
    H244     H        0.50000    0.11100    0.85730    1.000
    C628     C        0.50000    0.12860    0.84020    1.000
    H245     H        0.00000    0.38900    0.64270    1.000
    C629     C        0.00000    0.37140    0.65980    1.000
    H246     H        0.50000    0.88900    0.14270    1.000
    C630     C        0.50000    0.87140    0.15980    1.000
    H247     H        0.00000    0.61100    0.64270    1.000
    C631     C        0.00000    0.62860    0.65980    1.000
    H248     H        0.50000    0.11100    0.14270    1.000
    C632     C        0.50000    0.12860    0.15980    1.000
    H249     H        0.35730    0.00000    0.38900    1.000
    C633     C        0.34020    0.00000    0.37140    1.000
    H250     H        0.85730    0.50000    0.88900    1.000
    C634     C        0.84020    0.50000    0.87140    1.000
    H251     H        0.35730    0.00000    0.61100    1.000
    C635     C        0.34020    0.00000    0.62860    1.000
    H252     H        0.85730    0.50000    0.11100    1.000
    C636     C        0.84020    0.50000    0.12860    1.000
    H253     H        0.64270    0.00000    0.38900    1.000
    C637     C        0.65980    0.00000    0.37140    1.000
    H254     H        0.14270    0.50000    0.88900    1.000
    C638     C        0.15980    0.50000    0.87140    1.000
    H255     H        0.64270    0.00000    0.61100    1.000
    C639     C        0.65980    0.00000    0.62860    1.000
    H256     H        0.14270    0.50000    0.11100    1.000
    C640     C        0.15980    0.50000    0.12860    1.000
    H257     H        0.38900    0.35730    0.00000    1.000
    C641     C        0.37140    0.34020    0.00000    1.000
    H258     H        0.88900    0.85730    0.50000    1.000
    C642     C        0.87140    0.84020    0.50000    1.000
    H259     H        0.61100    0.35730    0.00000    1.000
    C643     C        0.62860    0.34020    0.00000    1.000
    H260     H        0.11100    0.85730    0.50000    1.000
    C644     C        0.12860    0.84020    0.50000    1.000
    H261     H        0.38900    0.64270    0.00000    1.000
    C645     C        0.37140    0.65980    0.00000    1.000
    H262     H        0.88900    0.14270    0.50000    1.000
    C646     C        0.87140    0.15980    0.50000    1.000
    H263     H        0.61100    0.64270    0.00000    1.000
    C647     C        0.62860    0.65980    0.00000    1.000
    H264     H        0.11100    0.14270    0.50000    1.000
    C648     C        0.12860    0.15980    0.50000    1.000
    H265     H        0.38900    0.00000    0.64270    1.000
    C649     C        0.37140    0.00000    0.65980    1.000
    H266     H        0.88900    0.50000    0.14270    1.000
    C650     C        0.87140    0.50000    0.15980    1.000
    H267     H        0.61100    0.00000    0.64270    1.000
    C651     C        0.62860    0.00000    0.65980    1.000
    H268     H        0.11100    0.50000    0.14270    1.000
    C652     C        0.12860    0.50000    0.15980    1.000
    H269     H        0.38900    0.00000    0.35730    1.000
    C653     C        0.37140    0.00000    0.34020    1.000
    H270     H        0.88900    0.50000    0.85730    1.000
    C654     C        0.87140    0.50000    0.84020    1.000
    H271     H        0.61100    0.00000    0.35730    1.000
    C655     C        0.62860    0.00000    0.34020    1.000
    H272     H        0.11100    0.50000    0.85730    1.000
    C656     C        0.12860    0.50000    0.84020    1.000
    H273     H        0.00000    0.35730    0.61100    1.000
    C657     C        0.00000    0.34020    0.62860    1.000
    H274     H        0.50000    0.85730    0.11100    1.000
    C658     C        0.50000    0.84020    0.12860    1.000
    H275     H        0.00000    0.35730    0.38900    1.000
    C659     C        0.00000    0.34020    0.37140    1.000
    H276     H        0.50000    0.85730    0.88900    1.000
    C660     C        0.50000    0.84020    0.87140    1.000
    H277     H        0.00000    0.64270    0.61100    1.000
    C661     C        0.00000    0.65980    0.62860    1.000
    H278     H        0.50000    0.14270    0.11100    1.000
    C662     C        0.50000    0.15980    0.12860    1.000
    H279     H        0.00000    0.64270    0.38900    1.000
    C663     C        0.00000    0.65980    0.37140    1.000
    H280     H        0.50000    0.14270    0.88900    1.000
    C664     C        0.50000    0.15980    0.87140    1.000
    H281     H        0.35730    0.38900    0.00000    1.000
    C665     C        0.34020    0.37140    0.00000    1.000
    H282     H        0.85730    0.88900    0.50000    1.000
    C666     C        0.84020    0.87140    0.50000    1.000
    H283     H        0.35730    0.61100    0.00000    1.000
    C667     C        0.34020    0.62860    0.00000    1.000
    H284     H        0.85730    0.11100    0.50000    1.000
    C668     C        0.84020    0.12860    0.50000    1.000
    H285     H        0.64270    0.38900    0.00000    1.000
    C669     C        0.65980    0.37140    0.00000    1.000
    H286     H        0.14270    0.88900    0.50000    1.000
    C670     C        0.15980    0.87140    0.50000    1.000
    H287     H        0.64270    0.61100    0.00000    1.000
    C671     C        0.65980    0.62860    0.00000    1.000
    H288     H        0.14270    0.11100    0.50000    1.000
    C672     C        0.15980    0.12860    0.50000    1.000
