# CIF file generated by openbabel 3.1.0, see https://openbabel.org
data_I
_chemical_name_common 'image0'
_cell_length_a 26.548
_cell_length_b 20.076
_cell_length_c 12.964
_cell_angle_alpha 90
_cell_angle_beta 90
_cell_angle_gamma 90
_space_group_name_H-M_alt 'P 1'
_space_group_name_Hall 'P 1'
loop_
    _symmetry_equiv_pos_as_xyz
    x,y,z
loop_
    _atom_site_label
    _atom_site_type_symbol
    _atom_site_fract_x
    _atom_site_fract_y
    _atom_site_fract_z
    _atom_site_occupancy
    Co1      Co       0.74075    0.10694    0.59660    1.000
    W1       W        0.84708    0.16718    0.01567    1.000
    W2       W        0.73305    0.07704    0.10493    1.000
    W3       W        0.73107    0.16945    0.85936    1.000
    W4       W        0.63182    0.15782    0.18144    1.000
    W5       W        0.73380    0.15814    0.32371    1.000
    N1       N        0.66160    0.08110    0.58760    1.000
    O1       O        0.74570    0.07490    0.24830    1.000
    O2       O        0.80020    0.10750    0.08420    1.000
    O3       O        0.80050    0.31530    0.28900    1.000
    O4       O        0.66240    0.14150    0.31450    1.000
    O5       O        0.87610    0.18260    0.15110    1.000
    O6       O        0.65920    0.18210    0.84590    1.000
    O7       O        0.66170    0.07520    0.13290    1.000
    O8       O        0.71420    0.17830    0.16100    1.000
    O9       O        0.79890    0.17220    0.90740    1.000
    O10      O        0.74320    0.12780    0.44540    1.000
    O11      O        0.71960    0.10850    0.96930    1.000
    O12      O        0.62390    0.18480    0.04090    1.000
    O13      O        0.74150    0.99290    0.08450    1.000
    C1       C        0.63850    0.03550    0.52310    1.000
    H1       H        0.65460    0.01200    0.47070    1.000
    N2       N        0.58030    0.07240    0.62860    1.000
    C2       C        0.53420    0.08340    0.68190    1.000
    C3       C        0.45280    0.04440    0.73830    1.000
    H2       H        0.42790    0.01190    0.74030    1.000
    C4       C        0.49800    0.03310    0.68540    1.000
    H3       H        0.50380    0.99250    0.65300    1.000
    C5       C        0.44590    0.10410    0.78710    1.000
    C6       C        0.62590    0.09990    0.65300    1.000
    H4       H        0.63130    0.12830    0.70860    1.000
    C7       C        0.48050    0.15220    0.78400    1.000
    H5       H        0.47410    0.19290    0.81520    1.000
    C8       C        0.52730    0.14170    0.73100    1.000
    H6       H        0.55220    0.17420    0.73180    1.000
    C9       C        0.58990    0.03010    0.54700    1.000
    H7       H        0.56650    0.00260    0.51450    1.000
    N3       N        0.40110    0.11860    0.84450    1.000
    C10      C        0.34820    0.15680    0.96220    1.000
    H8       H        0.33550    0.17860    0.01990    1.000
    C11      C        0.39820    0.15720    0.93440    1.000
    H9       H        0.42450    0.17860    0.96810    1.000
    N4       N        0.31980    0.12080    0.89570    1.000
    C12      C        0.35300    0.09890    0.82360    1.000
    H10      H        0.34390    0.07340    0.76670    1.000
    O14      O        0.73720    0.11480    0.75580    1.000
    Co2      Co       0.75925    0.89306    0.09660    1.000
    W6       W        0.65292    0.83282    0.51567    1.000
    W7       W        0.76695    0.92296    0.60493    1.000
    W8       W        0.76893    0.83055    0.35936    1.000
    W9       W        0.86818    0.84218    0.68144    1.000
    W10      W        0.76620    0.84186    0.82371    1.000
    N5       N        0.83840    0.91890    0.08760    1.000
    O15      O        0.75430    0.92510    0.74830    1.000
    O16      O        0.69980    0.89250    0.58420    1.000
    O17      O        0.69950    0.68470    0.78900    1.000
    O18      O        0.83760    0.85850    0.81450    1.000
    O19      O        0.62390    0.81740    0.65110    1.000
    O20      O        0.84080    0.81790    0.34590    1.000
    O21      O        0.83830    0.92480    0.63290    1.000
    O22      O        0.78580    0.82170    0.66100    1.000
    O23      O        0.70110    0.82780    0.40740    1.000
    O24      O        0.75680    0.87220    0.94540    1.000
    O25      O        0.78040    0.89150    0.46930    1.000
    O26      O        0.87610    0.81520    0.54090    1.000
    O27      O        0.75850    0.00710    0.58450    1.000
    C13      C        0.86150    0.96450    0.02310    1.000
    H11      H        0.84540    0.98800    0.97070    1.000
    N6       N        0.91970    0.92760    0.12860    1.000
    C14      C        0.96580    0.91660    0.18190    1.000
    C15      C        0.04720    0.95560    0.23830    1.000
    H12      H        0.07210    0.98810    0.24030    1.000
    C16      C        0.00200    0.96690    0.18540    1.000
    H13      H        0.99620    0.00750    0.15300    1.000
    C17      C        0.05410    0.89590    0.28710    1.000
    C18      C        0.87410    0.90010    0.15300    1.000
    H14      H        0.86870    0.87170    0.20860    1.000
    C19      C        0.01950    0.84780    0.28400    1.000
    H15      H        0.02590    0.80710    0.31520    1.000
    C20      C        0.97270    0.85830    0.23100    1.000
    H16      H        0.94780    0.82580    0.23180    1.000
    C21      C        0.91010    0.96990    0.04700    1.000
    H17      H        0.93350    0.99740    0.01450    1.000
    N7       N        0.09890    0.88140    0.34450    1.000
    C22      C        0.15180    0.84320    0.46220    1.000
    H18      H        0.16450    0.82140    0.51990    1.000
    C23      C        0.10180    0.84280    0.43440    1.000
    H19      H        0.07550    0.82140    0.46810    1.000
    N8       N        0.18020    0.87920    0.39570    1.000
    C24      C        0.14700    0.90110    0.32360    1.000
    H20      H        0.15610    0.92660    0.26670    1.000
    O28      O        0.76280    0.88520    0.25580    1.000
    Co3      Co       0.25925    0.60694    0.40340    1.000
    W11      W        0.15292    0.66718    0.98433    1.000
    W12      W        0.26695    0.57704    0.89507    1.000
    W13      W        0.26893    0.66945    0.14064    1.000
    W14      W        0.36818    0.65782    0.81856    1.000
    W15      W        0.26620    0.65814    0.67629    1.000
    N9       N        0.33840    0.58110    0.41240    1.000
    O29      O        0.25430    0.57490    0.75170    1.000
    O30      O        0.19980    0.60750    0.91580    1.000
    O31      O        0.19950    0.81530    0.71100    1.000
    O32      O        0.33760    0.64150    0.68550    1.000
    O33      O        0.12390    0.68260    0.84890    1.000
    O34      O        0.34080    0.68210    0.15410    1.000
    O35      O        0.33830    0.57520    0.86710    1.000
    O36      O        0.28580    0.67830    0.83900    1.000
    O37      O        0.20110    0.67220    0.09260    1.000
    O38      O        0.25680    0.62780    0.55460    1.000
    O39      O        0.28040    0.60850    0.03070    1.000
    O40      O        0.37610    0.68480    0.95910    1.000
    O41      O        0.25850    0.49290    0.91550    1.000
    C25      C        0.36150    0.53550    0.47690    1.000
    H21      H        0.34540    0.51200    0.52930    1.000
    N10      N        0.41970    0.57240    0.37140    1.000
    C26      C        0.46580    0.58340    0.31810    1.000
    C27      C        0.54720    0.54440    0.26170    1.000
    H22      H        0.57210    0.51190    0.25970    1.000
    C28      C        0.50200    0.53310    0.31460    1.000
    H23      H        0.49620    0.49250    0.34700    1.000
    C29      C        0.55410    0.60410    0.21290    1.000
    C30      C        0.37410    0.59990    0.34700    1.000
    H24      H        0.36870    0.62830    0.29140    1.000
    C31      C        0.51950    0.65220    0.21600    1.000
    H25      H        0.52590    0.69290    0.18480    1.000
    C32      C        0.47270    0.64170    0.26900    1.000
    H26      H        0.44780    0.67420    0.26820    1.000
    C33      C        0.41010    0.53010    0.45300    1.000
    H27      H        0.43350    0.50260    0.48550    1.000
    N11      N        0.59890    0.61860    0.15550    1.000
    C34      C        0.65180    0.65680    0.03780    1.000
    H28      H        0.66450    0.67860    0.98010    1.000
    C35      C        0.60180    0.65720    0.06560    1.000
    H29      H        0.57550    0.67860    0.03190    1.000
    N12      N        0.68020    0.62080    0.10430    1.000
    C36      C        0.64700    0.59890    0.17640    1.000
    H30      H        0.65610    0.57340    0.23330    1.000
    O42      O        0.26280    0.61480    0.24420    1.000
    Co4      Co       0.24075    0.39306    0.90340    1.000
    W16      W        0.34708    0.33282    0.48433    1.000
    W17      W        0.23305    0.42296    0.39507    1.000
    W18      W        0.23107    0.33055    0.64064    1.000
    W19      W        0.13182    0.34218    0.31856    1.000
    W20      W        0.23380    0.34186    0.17629    1.000
    N13      N        0.16160    0.41890    0.91240    1.000
    O43      O        0.24570    0.42510    0.25170    1.000
    O44      O        0.30020    0.39250    0.41580    1.000
    O45      O        0.30050    0.18470    0.21100    1.000
    O46      O        0.16240    0.35850    0.18550    1.000
    O47      O        0.37610    0.31740    0.34890    1.000
    O48      O        0.15920    0.31790    0.65410    1.000
    O49      O        0.16170    0.42480    0.36710    1.000
    O50      O        0.21420    0.32170    0.33900    1.000
    O51      O        0.29890    0.32780    0.59260    1.000
    O52      O        0.24320    0.37220    0.05460    1.000
    O53      O        0.21960    0.39150    0.53070    1.000
    O54      O        0.12390    0.31520    0.45910    1.000
    O55      O        0.24150    0.50710    0.41550    1.000
    C37      C        0.13850    0.46450    0.97690    1.000
    H31      H        0.15460    0.48800    0.02930    1.000
    N14      N        0.08030    0.42760    0.87140    1.000
    C38      C        0.03420    0.41660    0.81810    1.000
    C39      C        0.95280    0.45560    0.76170    1.000
    H32      H        0.92790    0.48810    0.75970    1.000
    C40      C        0.99800    0.46690    0.81460    1.000
    H33      H        0.00380    0.50750    0.84700    1.000
    C41      C        0.94590    0.39590    0.71290    1.000
    C42      C        0.12590    0.40010    0.84700    1.000
    H34      H        0.13130    0.37170    0.79140    1.000
    C43      C        0.98050    0.34780    0.71600    1.000
    H35      H        0.97410    0.30710    0.68480    1.000
    C44      C        0.02730    0.35830    0.76900    1.000
    H36      H        0.05220    0.32580    0.76820    1.000
    C45      C        0.08990    0.46990    0.95300    1.000
    H37      H        0.06650    0.49740    0.98550    1.000
    N15      N        0.90110    0.38140    0.65550    1.000
    C46      C        0.84820    0.34320    0.53780    1.000
    H38      H        0.83550    0.32140    0.48010    1.000
    C47      C        0.89820    0.34280    0.56560    1.000
    H39      H        0.92450    0.32140    0.53190    1.000
    N16      N        0.81980    0.37920    0.60430    1.000
    C48      C        0.85300    0.40110    0.67640    1.000
    H40      H        0.84390    0.42660    0.73330    1.000
    O56      O        0.23720    0.38520    0.74420    1.000
    Co5      Co       0.25925    0.89306    0.40340    1.000
    W21      W        0.15292    0.83282    0.98433    1.000
    W22      W        0.26695    0.92296    0.89507    1.000
    W23      W        0.26893    0.83055    0.14064    1.000
    W24      W        0.36818    0.84218    0.81856    1.000
    W25      W        0.26620    0.84186    0.67629    1.000
    N17      N        0.33840    0.91890    0.41240    1.000
    O57      O        0.25430    0.92510    0.75170    1.000
    O58      O        0.19980    0.89250    0.91580    1.000
    O59      O        0.19950    0.68470    0.71100    1.000
    O60      O        0.33760    0.85850    0.68550    1.000
    O61      O        0.12390    0.81740    0.84890    1.000
    O62      O        0.34080    0.81790    0.15410    1.000
    O63      O        0.33830    0.92480    0.86710    1.000
    O64      O        0.28580    0.82170    0.83900    1.000
    O65      O        0.20110    0.82780    0.09260    1.000
    O66      O        0.25680    0.87220    0.55460    1.000
    O67      O        0.28040    0.89150    0.03070    1.000
    O68      O        0.37610    0.81520    0.95910    1.000
    O69      O        0.25850    0.00710    0.91550    1.000
    C49      C        0.36150    0.96450    0.47690    1.000
    H41      H        0.34540    0.98800    0.52930    1.000
    N18      N        0.41970    0.92760    0.37140    1.000
    C50      C        0.46580    0.91660    0.31810    1.000
    C51      C        0.54720    0.95560    0.26170    1.000
    H42      H        0.57210    0.98810    0.25970    1.000
    C52      C        0.50200    0.96690    0.31460    1.000
    H43      H        0.49620    0.00750    0.34700    1.000
    C53      C        0.55410    0.89590    0.21290    1.000
    C54      C        0.37410    0.90010    0.34700    1.000
    H44      H        0.36870    0.87170    0.29140    1.000
    C55      C        0.51950    0.84780    0.21600    1.000
    H45      H        0.52590    0.80710    0.18480    1.000
    C56      C        0.47270    0.85830    0.26900    1.000
    H46      H        0.44780    0.82580    0.26820    1.000
    C57      C        0.41010    0.96990    0.45300    1.000
    H47      H        0.43350    0.99740    0.48550    1.000
    N19      N        0.59890    0.88140    0.15550    1.000
    C58      C        0.65180    0.84320    0.03780    1.000
    H48      H        0.66450    0.82140    0.98010    1.000
    C59      C        0.60180    0.84280    0.06560    1.000
    H49      H        0.57550    0.82140    0.03190    1.000
    N20      N        0.68020    0.87920    0.10430    1.000
    C60      C        0.64700    0.90110    0.17640    1.000
    H50      H        0.65610    0.92660    0.23330    1.000
    O70      O        0.26280    0.88520    0.24420    1.000
    Co6      Co       0.24075    0.10694    0.90340    1.000
    W26      W        0.34708    0.16718    0.48433    1.000
    W27      W        0.23305    0.07704    0.39507    1.000
    W28      W        0.23107    0.16945    0.64064    1.000
    W29      W        0.13182    0.15782    0.31856    1.000
    W30      W        0.23380    0.15814    0.17629    1.000
    N21      N        0.16160    0.08110    0.91240    1.000
    O71      O        0.24570    0.07490    0.25170    1.000
    O72      O        0.30020    0.10750    0.41580    1.000
    O73      O        0.30050    0.31530    0.21100    1.000
    O74      O        0.16240    0.14150    0.18550    1.000
    O75      O        0.37610    0.18260    0.34890    1.000
    O76      O        0.15920    0.18210    0.65410    1.000
    O77      O        0.16170    0.07520    0.36710    1.000
    O78      O        0.21420    0.17830    0.33900    1.000
    O79      O        0.29890    0.17220    0.59260    1.000
    O80      O        0.24320    0.12780    0.05460    1.000
    O81      O        0.21960    0.10850    0.53070    1.000
    O82      O        0.12390    0.18480    0.45910    1.000
    O83      O        0.24150    0.99290    0.41550    1.000
    C61      C        0.13850    0.03550    0.97690    1.000
    H51      H        0.15460    0.01200    0.02930    1.000
    N22      N        0.08030    0.07240    0.87140    1.000
    C62      C        0.03420    0.08340    0.81810    1.000
    C63      C        0.95280    0.04440    0.76170    1.000
    H52      H        0.92790    0.01190    0.75970    1.000
    C64      C        0.99800    0.03310    0.81460    1.000
    H53      H        0.00380    0.99250    0.84700    1.000
    C65      C        0.94590    0.10410    0.71290    1.000
    C66      C        0.12590    0.09990    0.84700    1.000
    H54      H        0.13130    0.12830    0.79140    1.000
    C67      C        0.98050    0.15220    0.71600    1.000
    H55      H        0.97410    0.19290    0.68480    1.000
    C68      C        0.02730    0.14170    0.76900    1.000
    H56      H        0.05220    0.17420    0.76820    1.000
    C69      C        0.08990    0.03010    0.95300    1.000
    H57      H        0.06650    0.00260    0.98550    1.000
    N23      N        0.90110    0.11860    0.65550    1.000
    C70      C        0.84820    0.15680    0.53780    1.000
    H58      H        0.83550    0.17860    0.48010    1.000
    C71      C        0.89820    0.15720    0.56560    1.000
    H59      H        0.92450    0.17860    0.53190    1.000
    N24      N        0.81980    0.12080    0.60430    1.000
    C72      C        0.85300    0.09890    0.67640    1.000
    H60      H        0.84390    0.07340    0.73330    1.000
    O84      O        0.23720    0.11480    0.74420    1.000
    Co7      Co       0.74075    0.39306    0.59660    1.000
    W31      W        0.84708    0.33282    0.01567    1.000
    W32      W        0.73305    0.42296    0.10493    1.000
    W33      W        0.73107    0.33055    0.85936    1.000
    W34      W        0.63182    0.34218    0.18144    1.000
    W35      W        0.73380    0.34186    0.32371    1.000
    N25      N        0.66160    0.41890    0.58760    1.000
    O85      O        0.74570    0.42510    0.24830    1.000
    O86      O        0.80020    0.39250    0.08420    1.000
    O87      O        0.80050    0.18470    0.28900    1.000
    O88      O        0.66240    0.35850    0.31450    1.000
    O89      O        0.87610    0.31740    0.15110    1.000
    O90      O        0.65920    0.31790    0.84590    1.000
    O91      O        0.66170    0.42480    0.13290    1.000
    O92      O        0.71420    0.32170    0.16100    1.000
    O93      O        0.79890    0.32780    0.90740    1.000
    O94      O        0.74320    0.37220    0.44540    1.000
    O95      O        0.71960    0.39150    0.96930    1.000
    O96      O        0.62390    0.31520    0.04090    1.000
    O97      O        0.74150    0.50710    0.08450    1.000
    C73      C        0.63850    0.46450    0.52310    1.000
    H61      H        0.65460    0.48800    0.47070    1.000
    N26      N        0.58030    0.42760    0.62860    1.000
    C74      C        0.53420    0.41660    0.68190    1.000
    C75      C        0.45280    0.45560    0.73830    1.000
    H62      H        0.42790    0.48810    0.74030    1.000
    C76      C        0.49800    0.46690    0.68540    1.000
    H63      H        0.50380    0.50750    0.65300    1.000
    C77      C        0.44590    0.39590    0.78710    1.000
    C78      C        0.62590    0.40010    0.65300    1.000
    H64      H        0.63130    0.37170    0.70860    1.000
    C79      C        0.48050    0.34780    0.78400    1.000
    H65      H        0.47410    0.30710    0.81520    1.000
    C80      C        0.52730    0.35830    0.73100    1.000
    H66      H        0.55220    0.32580    0.73180    1.000
    C81      C        0.58990    0.46990    0.54700    1.000
    H67      H        0.56650    0.49740    0.51450    1.000
    N27      N        0.40110    0.38140    0.84450    1.000
    C82      C        0.34820    0.34320    0.96220    1.000
    H68      H        0.33550    0.32140    0.01990    1.000
    C83      C        0.39820    0.34280    0.93440    1.000
    H69      H        0.42450    0.32140    0.96810    1.000
    N28      N        0.31980    0.37920    0.89570    1.000
    C84      C        0.35300    0.40110    0.82360    1.000
    H70      H        0.34390    0.42660    0.76670    1.000
    O98      O        0.73720    0.38520    0.75580    1.000
    Co8      Co       0.75925    0.60694    0.09660    1.000
    W36      W        0.65292    0.66718    0.51567    1.000
    W37      W        0.76695    0.57704    0.60493    1.000
    W38      W        0.76893    0.66945    0.35936    1.000
    W39      W        0.86818    0.65782    0.68144    1.000
    W40      W        0.76620    0.65814    0.82371    1.000
    N29      N        0.83840    0.58110    0.08760    1.000
    O99      O        0.75430    0.57490    0.74830    1.000
    O100     O        0.69980    0.60750    0.58420    1.000
    O101     O        0.69950    0.81530    0.78900    1.000
    O102     O        0.83760    0.64150    0.81450    1.000
    O103     O        0.62390    0.68260    0.65110    1.000
    O104     O        0.84080    0.68210    0.34590    1.000
    O105     O        0.83830    0.57520    0.63290    1.000
    O106     O        0.78580    0.67830    0.66100    1.000
    O107     O        0.70110    0.67220    0.40740    1.000
    O108     O        0.75680    0.62780    0.94540    1.000
    O109     O        0.78040    0.60850    0.46930    1.000
    O110     O        0.87610    0.68480    0.54090    1.000
    O111     O        0.75850    0.49290    0.58450    1.000
    C85      C        0.86150    0.53550    0.02310    1.000
    H71      H        0.84540    0.51200    0.97070    1.000
    N30      N        0.91970    0.57240    0.12860    1.000
    C86      C        0.96580    0.58340    0.18190    1.000
    C87      C        0.04720    0.54440    0.23830    1.000
    H72      H        0.07210    0.51190    0.24030    1.000
    C88      C        0.00200    0.53310    0.18540    1.000
    H73      H        0.99620    0.49250    0.15300    1.000
    C89      C        0.05410    0.60410    0.28710    1.000
    C90      C        0.87410    0.59990    0.15300    1.000
    H74      H        0.86870    0.62830    0.20860    1.000
    C91      C        0.01950    0.65220    0.28400    1.000
    H75      H        0.02590    0.69290    0.31520    1.000
    C92      C        0.97270    0.64170    0.23100    1.000
    H76      H        0.94780    0.67420    0.23180    1.000
    C93      C        0.91010    0.53010    0.04700    1.000
    H77      H        0.93350    0.50260    0.01450    1.000
    N31      N        0.09890    0.61860    0.34450    1.000
    C94      C        0.15180    0.65680    0.46220    1.000
    H78      H        0.16450    0.67860    0.51990    1.000
    C95      C        0.10180    0.65720    0.43440    1.000
    H79      H        0.07550    0.67860    0.46810    1.000
    N32      N        0.18020    0.62080    0.39570    1.000
    C96      C        0.14700    0.59890    0.32360    1.000
    H80      H        0.15610    0.57340    0.26670    1.000
    O112     O        0.76280    0.61480    0.25580    1.000
    W41      W        0.84766    0.25000    0.23956    1.000
    W42      W        0.63104    0.25000    0.93449    1.000
    O113     O        0.87730    0.25000    0.97310    1.000
    O114     O        0.72140    0.25000    0.34930    1.000
    O115     O        0.80170    0.25000    0.08910    1.000
    O116     O        0.71380    0.25000    0.96480    1.000
    O117     O        0.74370    0.25000    0.77910    1.000
    O118     O        0.62510    0.25000    0.21390    1.000
    W43      W        0.65234    0.75000    0.73956    1.000
    W44      W        0.86896    0.75000    0.43449    1.000
    O119     O        0.62270    0.75000    0.47310    1.000
    O120     O        0.77860    0.75000    0.84930    1.000
    O121     O        0.69830    0.75000    0.58910    1.000
    O122     O        0.78620    0.75000    0.46480    1.000
    O123     O        0.75630    0.75000    0.27910    1.000
    O124     O        0.87490    0.75000    0.71390    1.000
    W45      W        0.15234    0.75000    0.76044    1.000
    W46      W        0.36896    0.75000    0.06551    1.000
    O125     O        0.12270    0.75000    0.02690    1.000
    O126     O        0.27860    0.75000    0.65070    1.000
    O127     O        0.19830    0.75000    0.91090    1.000
    O128     O        0.28620    0.75000    0.03520    1.000
    O129     O        0.25630    0.75000    0.22090    1.000
    O130     O        0.37490    0.75000    0.78610    1.000
    W47      W        0.34766    0.25000    0.26044    1.000
    W48      W        0.13104    0.25000    0.56551    1.000
    O131     O        0.37730    0.25000    0.52690    1.000
    O132     O        0.22140    0.25000    0.15070    1.000
    O133     O        0.30170    0.25000    0.41090    1.000
    O134     O        0.21380    0.25000    0.53520    1.000
    O135     O        0.24370    0.25000    0.72090    1.000
    O136     O        0.12510    0.25000    0.28610    1.000
