# CIF file generated by openbabel 3.1.0, see https://openbabel.org
data_I
_chemical_name_common 'image0'
_cell_length_a 9.14
_cell_length_b 11.1538
_cell_length_c 11.2716
_cell_angle_alpha 77.261
_cell_angle_beta 68.453
_cell_angle_gamma 78.843
_space_group_name_H-M_alt 'P 1'
_space_group_name_Hall 'P 1'
loop_
    _symmetry_equiv_pos_as_xyz
    x,y,z
loop_
    _atom_site_label
    _atom_site_type_symbol
    _atom_site_fract_x
    _atom_site_fract_y
    _atom_site_fract_z
    _atom_site_occupancy
    Nd1      Nd       0.73063    0.01791    0.01935    1.000
    S1       S        0.69499    0.11981    0.49523    1.000
    O1       O        0.42870    0.07200    0.75280    1.000
    C1       C        0.55750    0.07290    0.76650    1.000
    S2       S        0.91645    0.73610    0.43742    1.000
    O2       O        0.57030    0.04640    0.87810    1.000
    C2       C        0.70620    0.10120    0.65340    1.000
    H1       H        0.79020    0.03500    0.66040    1.000
    H2       H        0.73710    0.17670    0.66150    1.000
    S3       S        0.84860    0.55392    0.87540    1.000
    O3       O        0.94160    0.89600    0.09400    1.000
    C3       C        0.71140    0.95880    0.48160    1.000
    H3       H        0.64610    0.91480    0.56220    1.000
    H4       H        0.67290    0.95300    0.41380    1.000
    O4       O        0.14430    0.81700    0.15780    1.000
    C4       C        0.88280    0.89850    0.45060    1.000
    H5       H        0.92080    0.90800    0.51750    1.000
    H6       H        0.94630    0.94330    0.36970    1.000
    O5       O        0.91490    0.90360    0.83450    1.000
    C5       C        0.89440    0.74220    0.28340    1.000
    H7       H        0.91600    0.65870    0.26410    1.000
    H8       H        0.78510    0.77250    0.29070    1.000
    O6       O        0.73350    0.79580    0.98450    1.000
    C6       C        0.00090    0.82300    0.17180    1.000
    C7       C        0.91270    0.51360    0.01790    1.000
    H9       H        0.87550    0.58180    0.06640    1.000
    H10      H        0.86460    0.44170    0.07340    1.000
    C8       C        0.91660    0.69920    0.80280    1.000
    H11      H        0.03080    0.68800    0.78070    1.000
    H12      H        0.89450    0.72460    0.72240    1.000
    C9       C        0.84880    0.80540    0.88050    1.000
    Nd2      Nd       0.26937    0.98209    0.98065    1.000
    S4       S        0.30501    0.88019    0.50477    1.000
    O7       O        0.57130    0.92800    0.24720    1.000
    C10      C        0.44250    0.92710    0.23350    1.000
    S5       S        0.08355    0.26390    0.56258    1.000
    O8       O        0.42970    0.95360    0.12190    1.000
    C11      C        0.29380    0.89880    0.34660    1.000
    H13      H        0.20980    0.96500    0.33960    1.000
    H14      H        0.26290    0.82330    0.33850    1.000
    S6       S        0.15140    0.44608    0.12460    1.000
    O9       O        0.05840    0.10400    0.90600    1.000
    C12      C        0.28860    0.04120    0.51840    1.000
    H15      H        0.35390    0.08520    0.43780    1.000
    H16      H        0.32710    0.04700    0.58620    1.000
    O10      O        0.85570    0.18300    0.84220    1.000
    C13      C        0.11720    0.10150    0.54940    1.000
    H17      H        0.07920    0.09200    0.48250    1.000
    H18      H        0.05370    0.05670    0.63030    1.000
    O11      O        0.08510    0.09640    0.16550    1.000
    C14      C        0.10560    0.25780    0.71660    1.000
    H19      H        0.08400    0.34130    0.73590    1.000
    H20      H        0.21490    0.22750    0.70930    1.000
    O12      O        0.26650    0.20420    0.01550    1.000
    C15      C        0.99910    0.17700    0.82820    1.000
    C16      C        0.08730    0.48640    0.98210    1.000
    H21      H        0.12450    0.41820    0.93360    1.000
    H22      H        0.13540    0.55830    0.92660    1.000
    C17      C        0.08340    0.30080    0.19720    1.000
    H23      H        0.96920    0.31200    0.21930    1.000
    H24      H        0.10550    0.27540    0.27760    1.000
    C18      C        0.15120    0.19460    0.11950    1.000
