# CIF file generated by openbabel 3.1.0, see https://openbabel.org
data_I
_chemical_name_common 'CEKHIL_clean'
_cell_length_a 10.152
_cell_length_b 17.953
_cell_length_c 18.062
_cell_angle_alpha 90
_cell_angle_beta 94.62
_cell_angle_gamma 90
_space_group_name_H-M_alt 'P 1'
_space_group_name_Hall 'P 1'
loop_
    _symmetry_equiv_pos_as_xyz
    x,y,z
loop_
    _atom_site_label
    _atom_site_type_symbol
    _atom_site_fract_x
    _atom_site_fract_y
    _atom_site_fract_z
    _atom_site_occupancy
    Co1      Co       0.50930    0.69537    0.62858    1.000
    Co2      Co       0.27432    0.75069    0.48809    1.000
    Co3      Co       0.49070    0.19537    0.37142    1.000
    Co4      Co       0.72568    0.25069    0.51191    1.000
    H1       H        0.62050    0.05280    0.77510    1.000
    H2       H        0.86460    0.10990    0.10100    1.000
    H3       H        0.02290    0.12140    0.80280    1.000
    H4       H        0.11410    0.14290    0.92280    1.000
    H5       H        0.76630    0.09260    0.00210    1.000
    H6       H        0.67510    0.07120    0.88210    1.000
    H7       H        0.58950    0.91850    0.69740    1.000
    H8       H        0.45840    0.96550    0.48730    1.000
    H9       H        0.62650    0.12760    0.62230    1.000
    H10      H        0.16540    0.16010    0.18330    1.000
    H11      H        0.03500    0.20460    0.38190    1.000
    H12      H        0.77440    0.16360    0.20630    1.000
    H13      H        0.37950    0.55280    0.22490    1.000
    H14      H        0.13540    0.60990    0.89900    1.000
    H15      H        0.97710    0.62140    0.19720    1.000
    H16      H        0.88590    0.64290    0.07720    1.000
    H17      H        0.23370    0.59260    0.99790    1.000
    H18      H        0.32490    0.57120    0.11790    1.000
    H19      H        0.41050    0.41850    0.30260    1.000
    H20      H        0.54160    0.46550    0.51270    1.000
    H21      H        0.37350    0.62760    0.37770    1.000
    H22      H        0.83460    0.66010    0.81670    1.000
    H23      H        0.96500    0.70460    0.61810    1.000
    H24      H        0.22560    0.66360    0.79370    1.000
    C1       C        0.83999    0.09417    0.83054    1.000
    C2       C        0.97149    0.11565    0.84275    1.000
    C3       C        0.02611    0.12850    0.91467    1.000
    C4       C        0.94923    0.11986    0.97439    1.000
    C5       C        0.81773    0.09838    0.96218    1.000
    C6       C        0.76311    0.08553    0.89026    1.000
    C7       C        0.78660    0.08465    0.75237    1.000
    C8       C        0.00899    0.14279    0.04803    1.000
    C9       C        0.61600    0.02569    0.66965    1.000
    C10      C        0.57570    0.95293    0.65909    1.000
    C11      C        0.51250    0.93065    0.58912    1.000
    C12      C        0.49910    0.98040    0.53288    1.000
    C13      C        0.54570    0.05503    0.54157    1.000
    C14      C        0.60120    0.07840    0.61359    1.000
    C15      C        0.46490    0.85160    0.58063    1.000
    C16      C        0.53110    0.10798    0.48021    1.000
    C17      C        0.96780    0.16142    0.18176    1.000
    C18      C        0.09470    0.16782    0.21215    1.000
    C19      C        0.11680    0.18617    0.28708    1.000
    C20      C        0.01680    0.19448    0.33164    1.000
    C21      C        0.88430    0.18773    0.30116    1.000
    C22      C        0.86070    0.16994    0.22678    1.000
    C23      C        0.25940    0.19060    0.32087    1.000
    C24      C        0.77200    0.19870    0.34966    1.000
    C25      C        0.16001    0.59417    0.16946    1.000
    C26      C        0.02851    0.61565    0.15725    1.000
    C27      C        0.97389    0.62850    0.08533    1.000
    C28      C        0.05077    0.61986    0.02561    1.000
    C29      C        0.18227    0.59838    0.03782    1.000
    C30      C        0.23689    0.58553    0.10974    1.000
    C31      C        0.21340    0.58465    0.24763    1.000
    C32      C        0.99101    0.64279    0.95197    1.000
    C33      C        0.38400    0.52569    0.33035    1.000
    C34      C        0.42430    0.45293    0.34091    1.000
    C35      C        0.48750    0.43065    0.41088    1.000
    C36      C        0.50090    0.48040    0.46712    1.000
    C37      C        0.45430    0.55503    0.45843    1.000
    C38      C        0.39880    0.57840    0.38641    1.000
    C39      C        0.53510    0.35160    0.41937    1.000
    C40      C        0.46890    0.60798    0.51979    1.000
    C41      C        0.03220    0.66142    0.81824    1.000
    C42      C        0.90530    0.66782    0.78785    1.000
    C43      C        0.88320    0.68617    0.71292    1.000
    C44      C        0.98320    0.69448    0.66836    1.000
    C45      C        0.11570    0.68773    0.69884    1.000
    C46      C        0.13930    0.66994    0.77322    1.000
    C47      C        0.74060    0.69060    0.67913    1.000
    C48      C        0.22800    0.69870    0.65034    1.000
    N1       N        0.67910    0.04410    0.74120    1.000
    N2       N        0.93120    0.14310    0.10630    1.000
    N3       N        0.32090    0.54410    0.25880    1.000
    N4       N        0.06880    0.64310    0.89370    1.000
    O1       O        0.85190    0.11010    0.70230    1.000
    O2       O        0.12290    0.17040    0.05900    1.000
    O3       O        0.50130    0.80780    0.63110    1.000
    O4       O        0.40040    0.83580    0.52140    1.000
    O5       O        0.48450    0.08610    0.41800    1.000
    O6       O        0.56380    0.17580    0.49040    1.000
    O7       O        0.35300    0.17960    0.28030    1.000
    O8       O        0.27760    0.20470    0.38850    1.000
    O9       O        0.79940    0.22610    0.41170    1.000
    O10      O        0.65910    0.17870    0.32300    1.000
    O11      O        0.14810    0.61010    0.29770    1.000
    O12      O        0.87710    0.67040    0.94100    1.000
    O13      O        0.49870    0.30780    0.36890    1.000
    O14      O        0.59960    0.33580    0.47860    1.000
    O15      O        0.51550    0.58610    0.58200    1.000
    O16      O        0.43620    0.67580    0.50960    1.000
    O17      O        0.64700    0.67960    0.71970    1.000
    O18      O        0.72240    0.70470    0.61150    1.000
    O19      O        0.20060    0.72610    0.58830    1.000
    O20      O        0.34090    0.67870    0.67700    1.000
