# CIF file generated by openbabel 3.1.0, see https://openbabel.org
data_I
_chemical_name_common 'image0'
_cell_length_a 15.8274
_cell_length_b 9.6221
_cell_length_c 20.2022
_cell_angle_alpha 90
_cell_angle_beta 96.855
_cell_angle_gamma 90
_space_group_name_H-M_alt 'P 1'
_space_group_name_Hall 'P 1'
loop_
    _symmetry_equiv_pos_as_xyz
    x,y,z
loop_
    _atom_site_label
    _atom_site_type_symbol
    _atom_site_fract_x
    _atom_site_fract_y
    _atom_site_fract_z
    _atom_site_occupancy
    U1       U        0.28412    0.53175    0.49231    1.000
    U2       U        0.11439    0.78330    0.72436    1.000
    O1       O        0.34840    0.72410    0.56120    1.000
    O2       O        0.38410    0.51500    0.59540    1.000
    O3       O        0.24740    0.70320    0.67460    1.000
    O4       O        0.26420    0.84570    0.76000    1.000
    O5       O        0.80920    0.55980    0.59310    1.000
    O6       O        0.86600    0.44020    0.68070    1.000
    O7       O        0.98370    0.82260    0.78080    1.000
    O8       O        0.96710    0.70540    0.68720    1.000
    C1       C        0.56940    0.75790    0.72860    1.000
    C2       C        0.51910    0.69960    0.67450    1.000
    H1       H        0.54620    0.65560    0.64050    1.000
    C3       C        0.43010    0.70340    0.66820    1.000
    C4       C        0.39010    0.76720    0.71880    1.000
    C5       C        0.43940    0.82550    0.77350    1.000
    H2       H        0.41250    0.86730    0.80810    1.000
    C6       C        0.52670    0.82290    0.77770    1.000
    H3       H        0.55920    0.86590    0.81470    1.000
    C7       C        0.38390    0.64570    0.60560    1.000
    C8       C        0.29490    0.77200    0.71740    1.000
    C9       C        0.66360    0.75300    0.73410    1.000
    C10      C        0.70360    0.65690    0.69690    1.000
    H4       H        0.66970    0.59320    0.66930    1.000
    C11      C        0.79210    0.65120    0.69900    1.000
    C12      C        0.84210    0.74550    0.74040    1.000
    C13      C        0.80300    0.83970    0.77890    1.000
    H5       H        0.83690    0.90110    0.80780    1.000
    C14      C        0.71630    0.84530    0.77590    1.000
    H6       H        0.69090    0.91170    0.80210    1.000
    C15      C        0.82640    0.54230    0.65680    1.000
    C16      C        0.93650    0.75660    0.73650    1.000
    U3       U        0.71588    0.03175    0.00769    1.000
    U4       U        0.88561    0.28330    0.77564    1.000
    O9       O        0.65160    0.22410    0.93880    1.000
    O10      O        0.61590    0.01500    0.90460    1.000
    O11      O        0.75260    0.20320    0.82540    1.000
    O12      O        0.73580    0.34570    0.74000    1.000
    O13      O        0.19080    0.05980    0.90690    1.000
    O14      O        0.13400    0.94020    0.81930    1.000
    O15      O        0.01630    0.32260    0.71920    1.000
    O16      O        0.03290    0.20540    0.81280    1.000
    C17      C        0.43060    0.25790    0.77140    1.000
    C18      C        0.48090    0.19960    0.82550    1.000
    H7       H        0.45380    0.15560    0.85950    1.000
    C19      C        0.56990    0.20340    0.83180    1.000
    C20      C        0.60990    0.26720    0.78120    1.000
    C21      C        0.56060    0.32550    0.72650    1.000
    H8       H        0.58750    0.36730    0.69190    1.000
    C22      C        0.47330    0.32290    0.72230    1.000
    H9       H        0.44080    0.36590    0.68530    1.000
    C23      C        0.61610    0.14570    0.89440    1.000
    C24      C        0.70510    0.27200    0.78260    1.000
    C25      C        0.33640    0.25300    0.76590    1.000
    C26      C        0.29640    0.15690    0.80310    1.000
    H10      H        0.33030    0.09320    0.83070    1.000
    C27      C        0.20790    0.15120    0.80100    1.000
    C28      C        0.15790    0.24550    0.75960    1.000
    C29      C        0.19700    0.33970    0.72110    1.000
    H11      H        0.16310    0.40110    0.69220    1.000
    C30      C        0.28370    0.34530    0.72410    1.000
    H12      H        0.30910    0.41170    0.69790    1.000
    C31      C        0.17360    0.04230    0.84320    1.000
    C32      C        0.06350    0.25660    0.76350    1.000
    U5       U        0.71588    0.46825    0.50769    1.000
    U6       U        0.88561    0.21670    0.27564    1.000
    O17      O        0.65160    0.27590    0.43880    1.000
    O18      O        0.61590    0.48500    0.40460    1.000
    O19      O        0.75260    0.29680    0.32540    1.000
    O20      O        0.73580    0.15430    0.24000    1.000
    O21      O        0.19080    0.44020    0.40690    1.000
    O22      O        0.13400    0.55980    0.31930    1.000
    O23      O        0.01630    0.17740    0.21920    1.000
    O24      O        0.03290    0.29460    0.31280    1.000
    C33      C        0.43060    0.24210    0.27140    1.000
    C34      C        0.48090    0.30040    0.32550    1.000
    H13      H        0.45380    0.34440    0.35950    1.000
    C35      C        0.56990    0.29660    0.33180    1.000
    C36      C        0.60990    0.23280    0.28120    1.000
    C37      C        0.56060    0.17450    0.22650    1.000
    H14      H        0.58750    0.13270    0.19190    1.000
    C38      C        0.47330    0.17710    0.22230    1.000
    H15      H        0.44080    0.13410    0.18530    1.000
    C39      C        0.61610    0.35430    0.39440    1.000
    C40      C        0.70510    0.22800    0.28260    1.000
    C41      C        0.33640    0.24700    0.26590    1.000
    C42      C        0.29640    0.34310    0.30310    1.000
    H16      H        0.33030    0.40680    0.33070    1.000
    C43      C        0.20790    0.34880    0.30100    1.000
    C44      C        0.15790    0.25450    0.25960    1.000
    C45      C        0.19700    0.16030    0.22110    1.000
    H17      H        0.16310    0.09890    0.19220    1.000
    C46      C        0.28370    0.15470    0.22410    1.000
    H18      H        0.30910    0.08830    0.19790    1.000
    C47      C        0.17360    0.45770    0.34320    1.000
    C48      C        0.06350    0.24340    0.26350    1.000
    U7       U        0.28412    0.96825    0.99231    1.000
    U8       U        0.11439    0.71670    0.22436    1.000
    O25      O        0.34840    0.77590    0.06120    1.000
    O26      O        0.38410    0.98500    0.09540    1.000
    O27      O        0.24740    0.79680    0.17460    1.000
    O28      O        0.26420    0.65430    0.26000    1.000
    O29      O        0.80920    0.94020    0.09310    1.000
    O30      O        0.86600    0.05980    0.18070    1.000
    O31      O        0.98370    0.67740    0.28080    1.000
    O32      O        0.96710    0.79460    0.18720    1.000
    C49      C        0.56940    0.74210    0.22860    1.000
    C50      C        0.51910    0.80040    0.17450    1.000
    H19      H        0.54620    0.84440    0.14050    1.000
    C51      C        0.43010    0.79660    0.16820    1.000
    C52      C        0.39010    0.73280    0.21880    1.000
    C53      C        0.43940    0.67450    0.27350    1.000
    H20      H        0.41250    0.63270    0.30810    1.000
    C54      C        0.52670    0.67710    0.27770    1.000
    H21      H        0.55920    0.63410    0.31470    1.000
    C55      C        0.38390    0.85430    0.10560    1.000
    C56      C        0.29490    0.72800    0.21740    1.000
    C57      C        0.66360    0.74700    0.23410    1.000
    C58      C        0.70360    0.84310    0.19690    1.000
    H22      H        0.66970    0.90680    0.16930    1.000
    C59      C        0.79210    0.84880    0.19900    1.000
    C60      C        0.84210    0.75450    0.24040    1.000
    C61      C        0.80300    0.66030    0.27890    1.000
    H23      H        0.83690    0.59890    0.30780    1.000
    C62      C        0.71630    0.65470    0.27590    1.000
    H24      H        0.69090    0.58830    0.30210    1.000
    C63      C        0.82640    0.95770    0.15680    1.000
    C64      C        0.93650    0.74340    0.23650    1.000
