# CIF file generated by openbabel 3.1.0, see https://openbabel.org
data_I
_chemical_name_common 'image0'
_cell_length_a 12.079
_cell_length_b 5.2419
_cell_length_c 21.254
_cell_angle_alpha 90
_cell_angle_beta 103.886
_cell_angle_gamma 90
_space_group_name_H-M_alt 'P 1'
_space_group_name_Hall 'P 1'
loop_
    _symmetry_equiv_pos_as_xyz
    x,y,z
loop_
    _atom_site_label
    _atom_site_type_symbol
    _atom_site_fract_x
    _atom_site_fract_y
    _atom_site_fract_z
    _atom_site_occupancy
    Na1      Na       0.40660    0.67000    0.96840    1.000
    Na2      Na       0.66410    0.71400    0.93130    1.000
    Na3      Na       0.88510    0.15100    0.02420    1.000
    Na4      Na       0.82380    0.81300    0.81460    1.000
    O1       O        0.74660    0.45900    0.03170    1.000
    O2       O        0.50010    0.97100    0.92550    1.000
    O3       O        0.74110    0.87800    0.03640    1.000
    O4       O        0.98060    0.30600    0.94720    1.000
    H1       H        0.92160    0.36060    0.90870    1.000
    H2       H        0.02150    0.16030    0.93350    1.000
    O5       O        0.98360    0.35300    0.12050    1.000
    O6       O        0.52090    0.39600    0.92060    1.000
    O7       O        0.77940    0.47300    0.87310    1.000
    O8       O        0.73530    0.06300    0.87750    1.000
    O9       O        0.65560    0.72000    0.73470    1.000
    N1       N        0.80530    0.41100    0.23510    1.000
    H3       H        0.83780    0.53720    0.26020    1.000
    N2       N        0.60840    0.30600    0.74320    1.000
    H4       H        0.59150    0.15830    0.72340    1.000
    C1       C        0.64100    0.49800    0.71170    1.000
    C2       C        0.65300    0.45200    0.64360    1.000
    O10      O        0.00330    0.16500    0.21710    1.000
    C3       C        0.76000    0.65900    0.06280    1.000
    C4       C        0.60000    0.33300    0.81040    1.000
    H5       H        0.57750    0.51280    0.81650    1.000
    O11      O        0.68900    0.07600    0.22540    1.000
    C5       C        0.82400    0.40300    0.17000    1.000
    H6       H        0.77030    0.27500    0.14440    1.000
    C6       C        0.50900    0.16500    0.89710    1.000
    C7       C        0.79700    0.66700    0.13600    1.000
    H7       H        0.73650    0.74980    0.15260    1.000
    H8       H        0.86630    0.77500    0.14850    1.000
    C8       C        0.50500    0.15800    0.82250    1.000
    H9       H        0.51630    0.98120    0.80900    1.000
    H10      H        0.42950    0.21830    0.79720    1.000
    C9       C        0.68200    0.39300    0.51730    1.000
    C10      C        0.70200    0.36300    0.45150    1.000
    C11      C        0.73000    0.29700    0.32680    1.000
    C12      C        0.60000    0.25300    0.60640    1.000
    H11      H        0.55430    0.13550    0.62300    1.000
    C13      C        0.71400    0.28600    0.85700    1.000
    C14      C        0.74800    0.25900    0.25860    1.000
    C15      C        0.73000    0.58900    0.55730    1.000
    H12      H        0.77690    0.70690    0.54160    1.000
    C16      C        0.61400    0.22700    0.54390    1.000
    H13      H        0.57710    0.09030    0.51800    1.000
    C17      C        0.71600    0.62400    0.61880    1.000
    H14      H        0.74900    0.76620    0.64380    1.000
    C18      C        0.94900    0.32000    0.16840    1.000
    C19      C        0.62100    0.26500    0.40700    1.000
    H15      H        0.55200    0.21610    0.41740    1.000
    C20      C        0.63300    0.22700    0.34120    1.000
    H16      H        0.57260    0.15500    0.30900    1.000
    C21      C        0.82100    0.40600    0.37500    1.000
    H17      H        0.89010    0.45390    0.36430    1.000
    C22      C        0.81100    0.44100    0.43690    1.000
    H18      H        0.87080    0.51280    0.46920    1.000
    C23      C        0.72900    0.53900    0.35170    1.000
    H19      H        0.73650    0.68430    0.32640    1.000
    C24      C        0.71700    0.56500    0.41700    1.000
    H20      H        0.72030    0.73050    0.43520    1.000
    C25      C        0.66800    0.11900    0.41700    1.000
    H21      H        0.63560    0.98520    0.43660    1.000
    C26      C        0.68500    0.09200    0.35750    1.000
    H22      H        0.66710    0.93460    0.33520    1.000
    Na5      Na       0.59340    0.17000    0.03160    1.000
    Na6      Na       0.33590    0.21400    0.06870    1.000
    Na7      Na       0.11490    0.65100    0.97580    1.000
    Na8      Na       0.17620    0.31300    0.18540    1.000
    O12      O        0.25340    0.95900    0.96830    1.000
    O13      O        0.49990    0.47100    0.07450    1.000
    O14      O        0.25890    0.37800    0.96360    1.000
    O15      O        0.01940    0.80600    0.05280    1.000
    H23      H        0.07840    0.86060    0.09130    1.000
    H24      H        0.97850    0.66030    0.06650    1.000
    O16      O        0.01640    0.85300    0.87950    1.000
    O17      O        0.47910    0.89600    0.07940    1.000
    O18      O        0.22060    0.97300    0.12690    1.000
    O19      O        0.26470    0.56300    0.12250    1.000
    O20      O        0.34440    0.22000    0.26530    1.000
    N3       N        0.19470    0.91100    0.76490    1.000
    H25      H        0.16220    0.03720    0.73980    1.000
    N4       N        0.39160    0.80600    0.25680    1.000
    H26      H        0.40850    0.65830    0.27660    1.000
    C27      C        0.35900    0.99800    0.28830    1.000
    C28      C        0.34700    0.95200    0.35640    1.000
    O21      O        0.99670    0.66500    0.78290    1.000
    C29      C        0.24000    0.15900    0.93720    1.000
    C30      C        0.40000    0.83300    0.18960    1.000
    H27      H        0.42250    0.01280    0.18350    1.000
    O22      O        0.31100    0.57600    0.77460    1.000
    C31      C        0.17600    0.90300    0.83000    1.000
    H28      H        0.22970    0.77500    0.85560    1.000
    C32      C        0.49100    0.66500    0.10290    1.000
    C33      C        0.20300    0.16700    0.86400    1.000
    H29      H        0.26350    0.24980    0.84740    1.000
    H30      H        0.13370    0.27500    0.85150    1.000
    C34      C        0.49500    0.65800    0.17750    1.000
    H31      H        0.48370    0.48120    0.19100    1.000
    H32      H        0.57050    0.71830    0.20280    1.000
    C35      C        0.31800    0.89300    0.48270    1.000
    C36      C        0.29800    0.86300    0.54850    1.000
    C37      C        0.27000    0.79700    0.67320    1.000
    C38      C        0.40000    0.75300    0.39360    1.000
    H33      H        0.44570    0.63550    0.37700    1.000
    C39      C        0.28600    0.78600    0.14300    1.000
    C40      C        0.25200    0.75900    0.74140    1.000
    C41      C        0.27000    0.08900    0.44270    1.000
    H34      H        0.22310    0.20690    0.45840    1.000
    C42      C        0.38600    0.72700    0.45610    1.000
    H35      H        0.42290    0.59030    0.48200    1.000
    C43      C        0.28400    0.12400    0.38120    1.000
    H36      H        0.25100    0.26620    0.35620    1.000
    C44      C        0.05100    0.82000    0.83160    1.000
    C45      C        0.37900    0.76500    0.59300    1.000
    H37      H        0.44800    0.71610    0.58260    1.000
    C46      C        0.36700    0.72700    0.65880    1.000
    H38      H        0.42740    0.65500    0.69100    1.000
    C47      C        0.17900    0.90600    0.62500    1.000
    H39      H        0.10990    0.95390    0.63570    1.000
    C48      C        0.18900    0.94100    0.56310    1.000
    H40      H        0.12920    0.01280    0.53080    1.000
    C49      C        0.27100    0.03900    0.64830    1.000
    H41      H        0.26350    0.18430    0.67360    1.000
    C50      C        0.28300    0.06500    0.58300    1.000
    H42      H        0.27970    0.23050    0.56480    1.000
    C51      C        0.33200    0.61900    0.58300    1.000
    H43      H        0.36440    0.48520    0.56340    1.000
    C52      C        0.31500    0.59200    0.64250    1.000
    H44      H        0.33290    0.43460    0.66480    1.000
