# CIF file generated by openbabel 3.1.0, see https://openbabel.org
data_I
_chemical_name_common 'image0'
_cell_length_a 34.5922
_cell_length_b 14.8141
_cell_length_c 31.4266
_cell_angle_alpha 90
_cell_angle_beta 100.79
_cell_angle_gamma 90
_space_group_name_H-M_alt 'P 1'
_space_group_name_Hall 'P 1'
loop_
    _symmetry_equiv_pos_as_xyz
    x,y,z
loop_
    _atom_site_label
    _atom_site_type_symbol
    _atom_site_fract_x
    _atom_site_fract_y
    _atom_site_fract_z
    _atom_site_occupancy
    I1       I        0.26722    0.24114    0.20894    1.000
    I2       I        0.37469    0.16548    0.30299    1.000
    I3       I        0.10719    0.26518    0.10146    1.000
    I4       I        0.47438    0.34149    0.37269    1.000
    I5       I        0.14893    0.40068    0.99042    1.000
    I6       I        0.37413    0.26532    0.43776    1.000
    Zn1      Zn       0.12697    0.40559    0.06264    1.000
    Zn2      Zn       0.41355    0.37847    0.40357    1.000
    Zn3      Zn       0.32891    0.14696    0.22915    1.000
    N1       N        0.31680    0.01040    0.22220    1.000
    N2       N        0.26640    0.69130    0.18760    1.000
    C1       C        0.31010    0.59530    0.24990    1.000
    N3       N        0.42650    0.48380    0.44730    1.000
    N4       N        0.42380    0.72120    0.55970    1.000
    C2       C        0.26080    0.60560    0.19320    1.000
    N5       N        0.37670    0.44880    0.35530    1.000
    C3       C        0.51640    0.89380    0.55540    1.000
    N6       N        0.47540    0.76910    0.52580    1.000
    N7       N        0.32050    0.68020    0.24710    1.000
    N8       N        0.58050    0.00670    0.55760    1.000
    C4       C        0.28690    0.97590    0.19440    1.000
    H1       H        0.26960    0.01580    0.17640    1.000
    C5       C        0.29700    0.72750    0.21610    1.000
    C6       C        0.44650    0.71170    0.53010    1.000
    N9       N        0.16890    0.47180    0.10620    1.000
    C7       C        0.33290    0.54220    0.28650    1.000
    C8       C        0.35090    0.77450    0.65020    1.000
    H2       H        0.32710    0.74170    0.64870    1.000
    C9       C        0.44010    0.63230    0.50110    1.000
    N10      N        0.46040    0.85020    0.58550    1.000
    C10      C        0.56570    0.99380    0.59270    1.000
    H3       H        0.57660    0.02600    0.61830    1.000
    N11      N        0.27980    0.55300    0.22510    1.000
    C11      C        0.40700    0.80500    0.61960    1.000
    C12      C        0.34490    0.40860    0.33110    1.000
    H4       H        0.33730    0.34990    0.33840    1.000
    C13      C        0.30410    0.82430    0.21600    1.000
    C14      C        0.48200    0.83430    0.55480    1.000
    N12      N        0.36050    0.83300    0.68050    1.000
    C15      C        0.36660    0.58110    0.31230    1.000
    H5       H        0.37460    0.64080    0.30720    1.000
    C16      C        0.43140    0.79270    0.58510    1.000
    C17      C        0.22810    0.55970    0.16240    1.000
    C18      C        0.34070    0.95180    0.24730    1.000
    H6       H        0.36200    0.97510    0.26780    1.000
    C19      C        0.32350    0.45270    0.29580    1.000
    H7       H        0.30240    0.42260    0.27760    1.000
    C20      C        0.37450    0.75750    0.61900    1.000
    H8       H        0.36720    0.71200    0.59780    1.000
    C21      C        0.46720    0.60520    0.47650    1.000
    H9       H        0.49090    0.63870    0.47810    1.000
    C22      C        0.56540    0.96130    0.52280    1.000
    H10      H        0.57730    0.96800    0.49810    1.000
    C23      C        0.27990    0.88510    0.19070    1.000
    H11      H        0.25810    0.86360    0.17020    1.000
    C24      C        0.46100    0.53240    0.45020    1.000
    H12      H        0.48020    0.51460    0.43390    1.000
    C25      C        0.18180    0.55190    0.09810    1.000
    H13      H        0.17020    0.57860    0.07130    1.000
    C26      C        0.39960    0.50950    0.47010    1.000
    H14      H        0.37590    0.47600    0.46790    1.000
    C27      C        0.33560    0.85960    0.24450    1.000
    H15      H        0.35380    0.82070    0.26220    1.000
    C28      C        0.18710    0.43400    0.14430    1.000
    H16      H        0.17850    0.37620    0.15160    1.000
    C29      C        0.38700    0.52960    0.34490    1.000
    H17      H        0.41050    0.55430    0.36130    1.000
    C30      C        0.40550    0.58420    0.49690    1.000
    H18      H        0.38580    0.60250    0.51240    1.000
    C31      C        0.21080    0.60220    0.12500    1.000
    H19      H        0.21800    0.66150    0.11790    1.000
    C32      C        0.21600    0.47270    0.17140    1.000
    H20      H        0.22850    0.44190    0.19680    1.000
    C33      C        0.53350    0.90440    0.51940    1.000
    H21      H        0.52360    0.87350    0.49310    1.000
    C34      C        0.53440    0.93460    0.59380    1.000
    H22      H        0.52580    0.92250    0.62020    1.000
    C35      C        0.39140    0.88200    0.67920    1.000
    H23      H        0.39600    0.93150    0.69870    1.000
    C36      C        0.41720    0.86900    0.65330    1.000
    H24      H        0.44130    0.90120    0.65730    1.000
    H25      H        0.48910    0.76370    0.50500    1.000
    H26      H        0.27300    0.49680    0.22930    1.000
    I7       I        0.76722    0.74114    0.20894    1.000
    I8       I        0.87469    0.66548    0.30299    1.000
    I9       I        0.60719    0.76518    0.10146    1.000
    I10      I        0.97438    0.84149    0.37269    1.000
    I11      I        0.64893    0.90068    0.99042    1.000
    I12      I        0.87413    0.76532    0.43776    1.000
    Zn4      Zn       0.62697    0.90559    0.06264    1.000
    Zn5      Zn       0.91355    0.87847    0.40357    1.000
    Zn6      Zn       0.82891    0.64696    0.22915    1.000
    N13      N        0.81680    0.51040    0.22220    1.000
    N14      N        0.76640    0.19130    0.18760    1.000
    C37      C        0.81010    0.09530    0.24990    1.000
    N15      N        0.92650    0.98380    0.44730    1.000
    N16      N        0.92380    0.22120    0.55970    1.000
    C38      C        0.76080    0.10560    0.19320    1.000
    N17      N        0.87670    0.94880    0.35530    1.000
    C39      C        0.01640    0.39380    0.55540    1.000
    N18      N        0.97540    0.26910    0.52580    1.000
    N19      N        0.82050    0.18020    0.24710    1.000
    N20      N        0.08050    0.50670    0.55760    1.000
    C40      C        0.78690    0.47590    0.19440    1.000
    H27      H        0.76960    0.51580    0.17640    1.000
    C41      C        0.79700    0.22750    0.21610    1.000
    C42      C        0.94650    0.21170    0.53010    1.000
    N21      N        0.66890    0.97180    0.10620    1.000
    C43      C        0.83290    0.04220    0.28650    1.000
    C44      C        0.85090    0.27450    0.65020    1.000
    H28      H        0.82710    0.24170    0.64870    1.000
    C45      C        0.94010    0.13230    0.50110    1.000
    N22      N        0.96040    0.35020    0.58550    1.000
    C46      C        0.06570    0.49380    0.59270    1.000
    H29      H        0.07660    0.52600    0.61830    1.000
    N23      N        0.77980    0.05300    0.22510    1.000
    C47      C        0.90700    0.30500    0.61960    1.000
    C48      C        0.84490    0.90860    0.33110    1.000
    H30      H        0.83730    0.84990    0.33840    1.000
    C49      C        0.80410    0.32430    0.21600    1.000
    C50      C        0.98200    0.33430    0.55480    1.000
    N24      N        0.86050    0.33300    0.68050    1.000
    C51      C        0.86660    0.08110    0.31230    1.000
    H31      H        0.87460    0.14080    0.30720    1.000
    C52      C        0.93140    0.29270    0.58510    1.000
    C53      C        0.72810    0.05970    0.16240    1.000
    C54      C        0.84070    0.45180    0.24730    1.000
    H32      H        0.86200    0.47510    0.26780    1.000
    C55      C        0.82350    0.95270    0.29580    1.000
    H33      H        0.80240    0.92260    0.27760    1.000
    C56      C        0.87450    0.25750    0.61900    1.000
    H34      H        0.86720    0.21200    0.59780    1.000
    C57      C        0.96720    0.10520    0.47650    1.000
    H35      H        0.99090    0.13870    0.47810    1.000
    C58      C        0.06540    0.46130    0.52280    1.000
    H36      H        0.07730    0.46800    0.49810    1.000
    C59      C        0.77990    0.38510    0.19070    1.000
    H37      H        0.75810    0.36360    0.17020    1.000
    C60      C        0.96100    0.03240    0.45020    1.000
    H38      H        0.98020    0.01460    0.43390    1.000
    C61      C        0.68180    0.05190    0.09810    1.000
    H39      H        0.67020    0.07860    0.07130    1.000
    C62      C        0.89960    0.00950    0.47010    1.000
    H40      H        0.87590    0.97600    0.46790    1.000
    C63      C        0.83560    0.35960    0.24450    1.000
    H41      H        0.85380    0.32070    0.26220    1.000
    C64      C        0.68710    0.93400    0.14430    1.000
    H42      H        0.67850    0.87620    0.15160    1.000
    C65      C        0.88700    0.02960    0.34490    1.000
    H43      H        0.91050    0.05430    0.36130    1.000
    C66      C        0.90550    0.08420    0.49690    1.000
    H44      H        0.88580    0.10250    0.51240    1.000
    C67      C        0.71080    0.10220    0.12500    1.000
    H45      H        0.71800    0.16150    0.11790    1.000
    C68      C        0.71600    0.97270    0.17140    1.000
    H46      H        0.72850    0.94190    0.19680    1.000
    C69      C        0.03350    0.40440    0.51940    1.000
    H47      H        0.02360    0.37350    0.49310    1.000
    C70      C        0.03440    0.43460    0.59380    1.000
    H48      H        0.02580    0.42250    0.62020    1.000
    C71      C        0.89140    0.38200    0.67920    1.000
    H49      H        0.89600    0.43150    0.69870    1.000
    C72      C        0.91720    0.36900    0.65330    1.000
    H50      H        0.94130    0.40120    0.65730    1.000
    H51      H        0.98910    0.26370    0.50500    1.000
    H52      H        0.77300    0.99680    0.22930    1.000
    I13      I        0.26722    0.75886    0.70894    1.000
    I14      I        0.37469    0.83452    0.80299    1.000
    I15      I        0.10719    0.73482    0.60146    1.000
    I16      I        0.47438    0.65851    0.87269    1.000
    I17      I        0.14893    0.59932    0.49042    1.000
    I18      I        0.37413    0.73468    0.93776    1.000
    Zn7      Zn       0.12697    0.59441    0.56264    1.000
    Zn8      Zn       0.41355    0.62153    0.90357    1.000
    Zn9      Zn       0.32891    0.85304    0.72915    1.000
    N25      N        0.31680    0.98960    0.72220    1.000
    N26      N        0.26640    0.30870    0.68760    1.000
    C73      C        0.31010    0.40470    0.74990    1.000
    N27      N        0.42650    0.51620    0.94730    1.000
    N28      N        0.42380    0.27880    0.05970    1.000
    C74      C        0.26080    0.39440    0.69320    1.000
    N29      N        0.37670    0.55120    0.85530    1.000
    C75      C        0.51640    0.10620    0.05540    1.000
    N30      N        0.47540    0.23090    0.02580    1.000
    N31      N        0.32050    0.31980    0.74710    1.000
    N32      N        0.58050    0.99330    0.05760    1.000
    C76      C        0.28690    0.02410    0.69440    1.000
    H53      H        0.26960    0.98420    0.67640    1.000
    C77      C        0.29700    0.27250    0.71610    1.000
    C78      C        0.44650    0.28830    0.03010    1.000
    N33      N        0.16890    0.52820    0.60620    1.000
    C79      C        0.33290    0.45780    0.78650    1.000
    C80      C        0.35090    0.22550    0.15020    1.000
    H54      H        0.32710    0.25830    0.14870    1.000
    C81      C        0.44010    0.36770    0.00110    1.000
    N34      N        0.46040    0.14980    0.08550    1.000
    C82      C        0.56570    0.00620    0.09270    1.000
    H55      H        0.57660    0.97400    0.11830    1.000
    N35      N        0.27980    0.44700    0.72510    1.000
    C83      C        0.40700    0.19500    0.11960    1.000
    C84      C        0.34490    0.59140    0.83110    1.000
    H56      H        0.33730    0.65010    0.83840    1.000
    C85      C        0.30410    0.17570    0.71600    1.000
    C86      C        0.48200    0.16570    0.05480    1.000
    N36      N        0.36050    0.16700    0.18050    1.000
    C87      C        0.36660    0.41890    0.81230    1.000
    H57      H        0.37460    0.35920    0.80720    1.000
    C88      C        0.43140    0.20730    0.08510    1.000
    C89      C        0.22810    0.44030    0.66240    1.000
    C90      C        0.34070    0.04820    0.74730    1.000
    H58      H        0.36200    0.02490    0.76780    1.000
    C91      C        0.32350    0.54730    0.79580    1.000
    H59      H        0.30240    0.57740    0.77760    1.000
    C92      C        0.37450    0.24250    0.11900    1.000
    H60      H        0.36720    0.28800    0.09780    1.000
    C93      C        0.46720    0.39480    0.97650    1.000
    H61      H        0.49090    0.36130    0.97810    1.000
    C94      C        0.56540    0.03870    0.02280    1.000
    H62      H        0.57730    0.03200    0.99810    1.000
    C95      C        0.27990    0.11490    0.69070    1.000
    H63      H        0.25810    0.13640    0.67020    1.000
    C96      C        0.46100    0.46760    0.95020    1.000
    H64      H        0.48020    0.48540    0.93390    1.000
    C97      C        0.18180    0.44810    0.59810    1.000
    H65      H        0.17020    0.42140    0.57130    1.000
    C98      C        0.39960    0.49050    0.97010    1.000
    H66      H        0.37590    0.52400    0.96790    1.000
    C99      C        0.33560    0.14040    0.74450    1.000
    H67      H        0.35380    0.17930    0.76220    1.000
    C100     C        0.18710    0.56600    0.64430    1.000
    H68      H        0.17850    0.62380    0.65160    1.000
    C101     C        0.38700    0.47040    0.84490    1.000
    H69      H        0.41050    0.44570    0.86130    1.000
    C102     C        0.40550    0.41580    0.99690    1.000
    H70      H        0.38580    0.39750    0.01240    1.000
    C103     C        0.21080    0.39780    0.62500    1.000
    H71      H        0.21800    0.33850    0.61790    1.000
    C104     C        0.21600    0.52730    0.67140    1.000
    H72      H        0.22850    0.55810    0.69680    1.000
    C105     C        0.53350    0.09560    0.01940    1.000
    H73      H        0.52360    0.12650    0.99310    1.000
    C106     C        0.53440    0.06540    0.09380    1.000
    H74      H        0.52580    0.07750    0.12020    1.000
    C107     C        0.39140    0.11800    0.17920    1.000
    H75      H        0.39600    0.06850    0.19870    1.000
    C108     C        0.41720    0.13100    0.15330    1.000
    H76      H        0.44130    0.09880    0.15730    1.000
    H77      H        0.48910    0.23630    0.00500    1.000
    H78      H        0.27300    0.50320    0.72930    1.000
    I19      I        0.76722    0.25886    0.70894    1.000
    I20      I        0.87469    0.33452    0.80299    1.000
    I21      I        0.60719    0.23482    0.60146    1.000
    I22      I        0.97438    0.15851    0.87269    1.000
    I23      I        0.64893    0.09932    0.49042    1.000
    I24      I        0.87413    0.23468    0.93776    1.000
    Zn10     Zn       0.62697    0.09441    0.56264    1.000
    Zn11     Zn       0.91355    0.12153    0.90357    1.000
    Zn12     Zn       0.82891    0.35304    0.72915    1.000
    N37      N        0.81680    0.48960    0.72220    1.000
    N38      N        0.76640    0.80870    0.68760    1.000
    C109     C        0.81010    0.90470    0.74990    1.000
    N39      N        0.92650    0.01620    0.94730    1.000
    N40      N        0.92380    0.77880    0.05970    1.000
    C110     C        0.76080    0.89440    0.69320    1.000
    N41      N        0.87670    0.05120    0.85530    1.000
    C111     C        0.01640    0.60620    0.05540    1.000
    N42      N        0.97540    0.73090    0.02580    1.000
    N43      N        0.82050    0.81980    0.74710    1.000
    N44      N        0.08050    0.49330    0.05760    1.000
    C112     C        0.78690    0.52410    0.69440    1.000
    H79      H        0.76960    0.48420    0.67640    1.000
    C113     C        0.79700    0.77250    0.71610    1.000
    C114     C        0.94650    0.78830    0.03010    1.000
    N45      N        0.66890    0.02820    0.60620    1.000
    C115     C        0.83290    0.95780    0.78650    1.000
    C116     C        0.85090    0.72550    0.15020    1.000
    H80      H        0.82710    0.75830    0.14870    1.000
    C117     C        0.94010    0.86770    0.00110    1.000
    N46      N        0.96040    0.64980    0.08550    1.000
    C118     C        0.06570    0.50620    0.09270    1.000
    H81      H        0.07660    0.47400    0.11830    1.000
    N47      N        0.77980    0.94700    0.72510    1.000
    C119     C        0.90700    0.69500    0.11960    1.000
    C120     C        0.84490    0.09140    0.83110    1.000
    H82      H        0.83730    0.15010    0.83840    1.000
    C121     C        0.80410    0.67570    0.71600    1.000
    C122     C        0.98200    0.66570    0.05480    1.000
    N48      N        0.86050    0.66700    0.18050    1.000
    C123     C        0.86660    0.91890    0.81230    1.000
    H83      H        0.87460    0.85920    0.80720    1.000
    C124     C        0.93140    0.70730    0.08510    1.000
    C125     C        0.72810    0.94030    0.66240    1.000
    C126     C        0.84070    0.54820    0.74730    1.000
    H84      H        0.86200    0.52490    0.76780    1.000
    C127     C        0.82350    0.04730    0.79580    1.000
    H85      H        0.80240    0.07740    0.77760    1.000
    C128     C        0.87450    0.74250    0.11900    1.000
    H86      H        0.86720    0.78800    0.09780    1.000
    C129     C        0.96720    0.89480    0.97650    1.000
    H87      H        0.99090    0.86130    0.97810    1.000
    C130     C        0.06540    0.53870    0.02280    1.000
    H88      H        0.07730    0.53200    0.99810    1.000
    C131     C        0.77990    0.61490    0.69070    1.000
    H89      H        0.75810    0.63640    0.67020    1.000
    C132     C        0.96100    0.96760    0.95020    1.000
    H90      H        0.98020    0.98540    0.93390    1.000
    C133     C        0.68180    0.94810    0.59810    1.000
    H91      H        0.67020    0.92140    0.57130    1.000
    C134     C        0.89960    0.99050    0.97010    1.000
    H92      H        0.87590    0.02400    0.96790    1.000
    C135     C        0.83560    0.64040    0.74450    1.000
    H93      H        0.85380    0.67930    0.76220    1.000
    C136     C        0.68710    0.06600    0.64430    1.000
    H94      H        0.67850    0.12380    0.65160    1.000
    C137     C        0.88700    0.97040    0.84490    1.000
    H95      H        0.91050    0.94570    0.86130    1.000
    C138     C        0.90550    0.91580    0.99690    1.000
    H96      H        0.88580    0.89750    0.01240    1.000
    C139     C        0.71080    0.89780    0.62500    1.000
    H97      H        0.71800    0.83850    0.61790    1.000
    C140     C        0.71600    0.02730    0.67140    1.000
    H98      H        0.72850    0.05810    0.69680    1.000
    C141     C        0.03350    0.59560    0.01940    1.000
    H99      H        0.02360    0.62650    0.99310    1.000
    C142     C        0.03440    0.56540    0.09380    1.000
    H100     H        0.02580    0.57750    0.12020    1.000
    C143     C        0.89140    0.61800    0.17920    1.000
    H101     H        0.89600    0.56850    0.19870    1.000
    C144     C        0.91720    0.63100    0.15330    1.000
    H102     H        0.94130    0.59880    0.15730    1.000
    H103     H        0.98910    0.73630    0.00500    1.000
    H104     H        0.77300    0.00320    0.72930    1.000
    I25      I        0.73278    0.24114    0.29106    1.000
    I26      I        0.62531    0.16548    0.19701    1.000
    I27      I        0.89281    0.26518    0.39854    1.000
    I28      I        0.52562    0.34149    0.12731    1.000
    I29      I        0.85107    0.40068    0.50958    1.000
    I30      I        0.62587    0.26532    0.06224    1.000
    Zn13     Zn       0.87303    0.40559    0.43736    1.000
    Zn14     Zn       0.58645    0.37847    0.09643    1.000
    Zn15     Zn       0.67109    0.14696    0.27085    1.000
    N49      N        0.68320    0.01040    0.27780    1.000
    N50      N        0.73360    0.69130    0.31240    1.000
    C145     C        0.68990    0.59530    0.25010    1.000
    N51      N        0.57350    0.48380    0.05270    1.000
    N52      N        0.57620    0.72120    0.94030    1.000
    C146     C        0.73920    0.60560    0.30680    1.000
    N53      N        0.62330    0.44880    0.14470    1.000
    C147     C        0.48360    0.89380    0.94460    1.000
    N54      N        0.52460    0.76910    0.97420    1.000
    N55      N        0.67950    0.68020    0.25290    1.000
    N56      N        0.41950    0.00670    0.94240    1.000
    C148     C        0.71310    0.97590    0.30560    1.000
    H105     H        0.73040    0.01580    0.32360    1.000
    C149     C        0.70300    0.72750    0.28390    1.000
    C150     C        0.55350    0.71170    0.96990    1.000
    N57      N        0.83110    0.47180    0.39380    1.000
    C151     C        0.66710    0.54220    0.21350    1.000
    C152     C        0.64910    0.77450    0.84980    1.000
    H106     H        0.67290    0.74170    0.85130    1.000
    C153     C        0.55990    0.63230    0.99890    1.000
    N58      N        0.53960    0.85020    0.91450    1.000
    C154     C        0.43430    0.99380    0.90730    1.000
    H107     H        0.42340    0.02600    0.88170    1.000
    N59      N        0.72020    0.55300    0.27490    1.000
    C155     C        0.59300    0.80500    0.88040    1.000
    C156     C        0.65510    0.40860    0.16890    1.000
    H108     H        0.66270    0.34990    0.16160    1.000
    C157     C        0.69590    0.82430    0.28400    1.000
    C158     C        0.51800    0.83430    0.94520    1.000
    N60      N        0.63950    0.83300    0.81950    1.000
    C159     C        0.63340    0.58110    0.18770    1.000
    H109     H        0.62540    0.64080    0.19280    1.000
    C160     C        0.56860    0.79270    0.91490    1.000
    C161     C        0.77190    0.55970    0.33760    1.000
    C162     C        0.65930    0.95180    0.25270    1.000
    H110     H        0.63800    0.97510    0.23220    1.000
    C163     C        0.67650    0.45270    0.20420    1.000
    H111     H        0.69760    0.42260    0.22240    1.000
    C164     C        0.62550    0.75750    0.88100    1.000
    H112     H        0.63280    0.71200    0.90220    1.000
    C165     C        0.53280    0.60520    0.02350    1.000
    H113     H        0.50910    0.63870    0.02190    1.000
    C166     C        0.43460    0.96130    0.97720    1.000
    H114     H        0.42270    0.96800    0.00190    1.000
    C167     C        0.72010    0.88510    0.30930    1.000
    H115     H        0.74190    0.86360    0.32980    1.000
    C168     C        0.53900    0.53240    0.04980    1.000
    H116     H        0.51980    0.51460    0.06610    1.000
    C169     C        0.81820    0.55190    0.40190    1.000
    H117     H        0.82980    0.57860    0.42870    1.000
    C170     C        0.60040    0.50950    0.02990    1.000
    H118     H        0.62410    0.47600    0.03210    1.000
    C171     C        0.66440    0.85960    0.25550    1.000
    H119     H        0.64620    0.82070    0.23780    1.000
    C172     C        0.81290    0.43400    0.35570    1.000
    H120     H        0.82150    0.37620    0.34840    1.000
    C173     C        0.61300    0.52960    0.15510    1.000
    H121     H        0.58950    0.55430    0.13870    1.000
    C174     C        0.59450    0.58420    0.00310    1.000
    H122     H        0.61420    0.60250    0.98760    1.000
    C175     C        0.78920    0.60220    0.37500    1.000
    H123     H        0.78200    0.66150    0.38210    1.000
    C176     C        0.78400    0.47270    0.32860    1.000
    H124     H        0.77150    0.44190    0.30320    1.000
    C177     C        0.46650    0.90440    0.98060    1.000
    H125     H        0.47640    0.87350    0.00690    1.000
    C178     C        0.46560    0.93460    0.90620    1.000
    H126     H        0.47420    0.92250    0.87980    1.000
    C179     C        0.60860    0.88200    0.82080    1.000
    H127     H        0.60400    0.93150    0.80130    1.000
    C180     C        0.58280    0.86900    0.84670    1.000
    H128     H        0.55870    0.90120    0.84270    1.000
    H129     H        0.51090    0.76370    0.99500    1.000
    H130     H        0.72700    0.49680    0.27070    1.000
    I31      I        0.23278    0.74114    0.29106    1.000
    I32      I        0.12531    0.66548    0.19701    1.000
    I33      I        0.39281    0.76518    0.39854    1.000
    I34      I        0.02562    0.84149    0.12731    1.000
    I35      I        0.35107    0.90068    0.50958    1.000
    I36      I        0.12587    0.76532    0.06224    1.000
    Zn16     Zn       0.37303    0.90559    0.43736    1.000
    Zn17     Zn       0.08645    0.87847    0.09643    1.000
    Zn18     Zn       0.17109    0.64696    0.27085    1.000
    N61      N        0.18320    0.51040    0.27780    1.000
    N62      N        0.23360    0.19130    0.31240    1.000
    C181     C        0.18990    0.09530    0.25010    1.000
    N63      N        0.07350    0.98380    0.05270    1.000
    N64      N        0.07620    0.22120    0.94030    1.000
    C182     C        0.23920    0.10560    0.30680    1.000
    N65      N        0.12330    0.94880    0.14470    1.000
    C183     C        0.98360    0.39380    0.94460    1.000
    N66      N        0.02460    0.26910    0.97420    1.000
    N67      N        0.17950    0.18020    0.25290    1.000
    N68      N        0.91950    0.50670    0.94240    1.000
    C184     C        0.21310    0.47590    0.30560    1.000
    H131     H        0.23040    0.51580    0.32360    1.000
    C185     C        0.20300    0.22750    0.28390    1.000
    C186     C        0.05350    0.21170    0.96990    1.000
    N69      N        0.33110    0.97180    0.39380    1.000
    C187     C        0.16710    0.04220    0.21350    1.000
    C188     C        0.14910    0.27450    0.84980    1.000
    H132     H        0.17290    0.24170    0.85130    1.000
    C189     C        0.05990    0.13230    0.99890    1.000
    N70      N        0.03960    0.35020    0.91450    1.000
    C190     C        0.93430    0.49380    0.90730    1.000
    H133     H        0.92340    0.52600    0.88170    1.000
    N71      N        0.22020    0.05300    0.27490    1.000
    C191     C        0.09300    0.30500    0.88040    1.000
    C192     C        0.15510    0.90860    0.16890    1.000
    H134     H        0.16270    0.84990    0.16160    1.000
    C193     C        0.19590    0.32430    0.28400    1.000
    C194     C        0.01800    0.33430    0.94520    1.000
    N72      N        0.13950    0.33300    0.81950    1.000
    C195     C        0.13340    0.08110    0.18770    1.000
    H135     H        0.12540    0.14080    0.19280    1.000
    C196     C        0.06860    0.29270    0.91490    1.000
    C197     C        0.27190    0.05970    0.33760    1.000
    C198     C        0.15930    0.45180    0.25270    1.000
    H136     H        0.13800    0.47510    0.23220    1.000
    C199     C        0.17650    0.95270    0.20420    1.000
    H137     H        0.19760    0.92260    0.22240    1.000
    C200     C        0.12550    0.25750    0.88100    1.000
    H138     H        0.13280    0.21200    0.90220    1.000
    C201     C        0.03280    0.10520    0.02350    1.000
    H139     H        0.00910    0.13870    0.02190    1.000
    C202     C        0.93460    0.46130    0.97720    1.000
    H140     H        0.92270    0.46800    0.00190    1.000
    C203     C        0.22010    0.38510    0.30930    1.000
    H141     H        0.24190    0.36360    0.32980    1.000
    C204     C        0.03900    0.03240    0.04980    1.000
    H142     H        0.01980    0.01460    0.06610    1.000
    C205     C        0.31820    0.05190    0.40190    1.000
    H143     H        0.32980    0.07860    0.42870    1.000
    C206     C        0.10040    0.00950    0.02990    1.000
    H144     H        0.12410    0.97600    0.03210    1.000
    C207     C        0.16440    0.35960    0.25550    1.000
    H145     H        0.14620    0.32070    0.23780    1.000
    C208     C        0.31290    0.93400    0.35570    1.000
    H146     H        0.32150    0.87620    0.34840    1.000
    C209     C        0.11300    0.02960    0.15510    1.000
    H147     H        0.08950    0.05430    0.13870    1.000
    C210     C        0.09450    0.08420    0.00310    1.000
    H148     H        0.11420    0.10250    0.98760    1.000
    C211     C        0.28920    0.10220    0.37500    1.000
    H149     H        0.28200    0.16150    0.38210    1.000
    C212     C        0.28400    0.97270    0.32860    1.000
    H150     H        0.27150    0.94190    0.30320    1.000
    C213     C        0.96650    0.40440    0.98060    1.000
    H151     H        0.97640    0.37350    0.00690    1.000
    C214     C        0.96560    0.43460    0.90620    1.000
    H152     H        0.97420    0.42250    0.87980    1.000
    C215     C        0.10860    0.38200    0.82080    1.000
    H153     H        0.10400    0.43150    0.80130    1.000
    C216     C        0.08280    0.36900    0.84670    1.000
    H154     H        0.05870    0.40120    0.84270    1.000
    H155     H        0.01090    0.26370    0.99500    1.000
    H156     H        0.22700    0.99680    0.27070    1.000
    I37      I        0.73278    0.75886    0.79106    1.000
    I38      I        0.62531    0.83452    0.69701    1.000
    I39      I        0.89281    0.73482    0.89854    1.000
    I40      I        0.52562    0.65851    0.62731    1.000
    I41      I        0.85107    0.59932    0.00958    1.000
    I42      I        0.62587    0.73468    0.56224    1.000
    Zn19     Zn       0.87303    0.59441    0.93736    1.000
    Zn20     Zn       0.58645    0.62153    0.59643    1.000
    Zn21     Zn       0.67109    0.85304    0.77085    1.000
    N73      N        0.68320    0.98960    0.77780    1.000
    N74      N        0.73360    0.30870    0.81240    1.000
    C217     C        0.68990    0.40470    0.75010    1.000
    N75      N        0.57350    0.51620    0.55270    1.000
    N76      N        0.57620    0.27880    0.44030    1.000
    C218     C        0.73920    0.39440    0.80680    1.000
    N77      N        0.62330    0.55120    0.64470    1.000
    C219     C        0.48360    0.10620    0.44460    1.000
    N78      N        0.52460    0.23090    0.47420    1.000
    N79      N        0.67950    0.31980    0.75290    1.000
    N80      N        0.41950    0.99330    0.44240    1.000
    C220     C        0.71310    0.02410    0.80560    1.000
    H157     H        0.73040    0.98420    0.82360    1.000
    C221     C        0.70300    0.27250    0.78390    1.000
    C222     C        0.55350    0.28830    0.46990    1.000
    N81      N        0.83110    0.52820    0.89380    1.000
    C223     C        0.66710    0.45780    0.71350    1.000
    C224     C        0.64910    0.22550    0.34980    1.000
    H158     H        0.67290    0.25830    0.35130    1.000
    C225     C        0.55990    0.36770    0.49890    1.000
    N82      N        0.53960    0.14980    0.41450    1.000
    C226     C        0.43430    0.00620    0.40730    1.000
    H159     H        0.42340    0.97400    0.38170    1.000
    N83      N        0.72020    0.44700    0.77490    1.000
    C227     C        0.59300    0.19500    0.38040    1.000
    C228     C        0.65510    0.59140    0.66890    1.000
    H160     H        0.66270    0.65010    0.66160    1.000
    C229     C        0.69590    0.17570    0.78400    1.000
    C230     C        0.51800    0.16570    0.44520    1.000
    N84      N        0.63950    0.16700    0.31950    1.000
    C231     C        0.63340    0.41890    0.68770    1.000
    H161     H        0.62540    0.35920    0.69280    1.000
    C232     C        0.56860    0.20730    0.41490    1.000
    C233     C        0.77190    0.44030    0.83760    1.000
    C234     C        0.65930    0.04820    0.75270    1.000
    H162     H        0.63800    0.02490    0.73220    1.000
    C235     C        0.67650    0.54730    0.70420    1.000
    H163     H        0.69760    0.57740    0.72240    1.000
    C236     C        0.62550    0.24250    0.38100    1.000
    H164     H        0.63280    0.28800    0.40220    1.000
    C237     C        0.53280    0.39480    0.52350    1.000
    H165     H        0.50910    0.36130    0.52190    1.000
    C238     C        0.43460    0.03870    0.47720    1.000
    H166     H        0.42270    0.03200    0.50190    1.000
    C239     C        0.72010    0.11490    0.80930    1.000
    H167     H        0.74190    0.13640    0.82980    1.000
    C240     C        0.53900    0.46760    0.54980    1.000
    H168     H        0.51980    0.48540    0.56610    1.000
    C241     C        0.81820    0.44810    0.90190    1.000
    H169     H        0.82980    0.42140    0.92870    1.000
    C242     C        0.60040    0.49050    0.52990    1.000
    H170     H        0.62410    0.52400    0.53210    1.000
    C243     C        0.66440    0.14040    0.75550    1.000
    H171     H        0.64620    0.17930    0.73780    1.000
    C244     C        0.81290    0.56600    0.85570    1.000
    H172     H        0.82150    0.62380    0.84840    1.000
    C245     C        0.61300    0.47040    0.65510    1.000
    H173     H        0.58950    0.44570    0.63870    1.000
    C246     C        0.59450    0.41580    0.50310    1.000
    H174     H        0.61420    0.39750    0.48760    1.000
    C247     C        0.78920    0.39780    0.87500    1.000
    H175     H        0.78200    0.33850    0.88210    1.000
    C248     C        0.78400    0.52730    0.82860    1.000
    H176     H        0.77150    0.55810    0.80320    1.000
    C249     C        0.46650    0.09560    0.48060    1.000
    H177     H        0.47640    0.12650    0.50690    1.000
    C250     C        0.46560    0.06540    0.40620    1.000
    H178     H        0.47420    0.07750    0.37980    1.000
    C251     C        0.60860    0.11800    0.32080    1.000
    H179     H        0.60400    0.06850    0.30130    1.000
    C252     C        0.58280    0.13100    0.34670    1.000
    H180     H        0.55870    0.09880    0.34270    1.000
    H181     H        0.51090    0.23630    0.49500    1.000
    H182     H        0.72700    0.50320    0.77070    1.000
    I43      I        0.23278    0.25886    0.79106    1.000
    I44      I        0.12531    0.33452    0.69701    1.000
    I45      I        0.39281    0.23482    0.89854    1.000
    I46      I        0.02562    0.15851    0.62731    1.000
    I47      I        0.35107    0.09932    0.00958    1.000
    I48      I        0.12587    0.23468    0.56224    1.000
    Zn22     Zn       0.37303    0.09441    0.93736    1.000
    Zn23     Zn       0.08645    0.12153    0.59643    1.000
    Zn24     Zn       0.17109    0.35304    0.77085    1.000
    N85      N        0.18320    0.48960    0.77780    1.000
    N86      N        0.23360    0.80870    0.81240    1.000
    C253     C        0.18990    0.90470    0.75010    1.000
    N87      N        0.07350    0.01620    0.55270    1.000
    N88      N        0.07620    0.77880    0.44030    1.000
    C254     C        0.23920    0.89440    0.80680    1.000
    N89      N        0.12330    0.05120    0.64470    1.000
    C255     C        0.98360    0.60620    0.44460    1.000
    N90      N        0.02460    0.73090    0.47420    1.000
    N91      N        0.17950    0.81980    0.75290    1.000
    N92      N        0.91950    0.49330    0.44240    1.000
    C256     C        0.21310    0.52410    0.80560    1.000
    H183     H        0.23040    0.48420    0.82360    1.000
    C257     C        0.20300    0.77250    0.78390    1.000
    C258     C        0.05350    0.78830    0.46990    1.000
    N93      N        0.33110    0.02820    0.89380    1.000
    C259     C        0.16710    0.95780    0.71350    1.000
    C260     C        0.14910    0.72550    0.34980    1.000
    H184     H        0.17290    0.75830    0.35130    1.000
    C261     C        0.05990    0.86770    0.49890    1.000
    N94      N        0.03960    0.64980    0.41450    1.000
    C262     C        0.93430    0.50620    0.40730    1.000
    H185     H        0.92340    0.47400    0.38170    1.000
    N95      N        0.22020    0.94700    0.77490    1.000
    C263     C        0.09300    0.69500    0.38040    1.000
    C264     C        0.15510    0.09140    0.66890    1.000
    H186     H        0.16270    0.15010    0.66160    1.000
    C265     C        0.19590    0.67570    0.78400    1.000
    C266     C        0.01800    0.66570    0.44520    1.000
    N96      N        0.13950    0.66700    0.31950    1.000
    C267     C        0.13340    0.91890    0.68770    1.000
    H187     H        0.12540    0.85920    0.69280    1.000
    C268     C        0.06860    0.70730    0.41490    1.000
    C269     C        0.27190    0.94030    0.83760    1.000
    C270     C        0.15930    0.54820    0.75270    1.000
    H188     H        0.13800    0.52490    0.73220    1.000
    C271     C        0.17650    0.04730    0.70420    1.000
    H189     H        0.19760    0.07740    0.72240    1.000
    C272     C        0.12550    0.74250    0.38100    1.000
    H190     H        0.13280    0.78800    0.40220    1.000
    C273     C        0.03280    0.89480    0.52350    1.000
    H191     H        0.00910    0.86130    0.52190    1.000
    C274     C        0.93460    0.53870    0.47720    1.000
    H192     H        0.92270    0.53200    0.50190    1.000
    C275     C        0.22010    0.61490    0.80930    1.000
    H193     H        0.24190    0.63640    0.82980    1.000
    C276     C        0.03900    0.96760    0.54980    1.000
    H194     H        0.01980    0.98540    0.56610    1.000
    C277     C        0.31820    0.94810    0.90190    1.000
    H195     H        0.32980    0.92140    0.92870    1.000
    C278     C        0.10040    0.99050    0.52990    1.000
    H196     H        0.12410    0.02400    0.53210    1.000
    C279     C        0.16440    0.64040    0.75550    1.000
    H197     H        0.14620    0.67930    0.73780    1.000
    C280     C        0.31290    0.06600    0.85570    1.000
    H198     H        0.32150    0.12380    0.84840    1.000
    C281     C        0.11300    0.97040    0.65510    1.000
    H199     H        0.08950    0.94570    0.63870    1.000
    C282     C        0.09450    0.91580    0.50310    1.000
    H200     H        0.11420    0.89750    0.48760    1.000
    C283     C        0.28920    0.89780    0.87500    1.000
    H201     H        0.28200    0.83850    0.88210    1.000
    C284     C        0.28400    0.02730    0.82860    1.000
    H202     H        0.27150    0.05810    0.80320    1.000
    C285     C        0.96650    0.59560    0.48060    1.000
    H203     H        0.97640    0.62650    0.50690    1.000
    C286     C        0.96560    0.56540    0.40620    1.000
    H204     H        0.97420    0.57750    0.37980    1.000
    C287     C        0.10860    0.61800    0.32080    1.000
    H205     H        0.10400    0.56850    0.30130    1.000
    C288     C        0.08280    0.63100    0.34670    1.000
    H206     H        0.05870    0.59880    0.34270    1.000
    H207     H        0.01090    0.73630    0.49500    1.000
    H208     H        0.22700    0.00320    0.77070    1.000
