# CIF file generated by openbabel 3.1.0, see https://openbabel.org
data_I
_chemical_name_common 'image0'
_cell_length_a 17.2209
_cell_length_b 17.2209
_cell_length_c 34.229
_cell_angle_alpha 90
_cell_angle_beta 90
_cell_angle_gamma 90
_space_group_name_H-M_alt 'P 1'
_space_group_name_Hall 'P 1'
loop_
    _symmetry_equiv_pos_as_xyz
    x,y,z
loop_
    _atom_site_label
    _atom_site_type_symbol
    _atom_site_fract_x
    _atom_site_fract_y
    _atom_site_fract_z
    _atom_site_occupancy
    C1       C        0.28180    0.31260    0.39680    1.000
    H1       H        0.30130    0.35560    0.41060    1.000
    C2       C        0.31170    0.28480    0.35720    1.000
    H2       H        0.35220    0.31010    0.34380    1.000
    O1       O        0.42430    0.29940    0.67320    1.000
    O2       O        0.42530    0.19960    0.71300    1.000
    C3       C        0.45840    0.24990    0.69230    1.000
    C4       C        0.54400    0.25620    0.69330    1.000
    C5       C        0.58750    0.19170    0.70420    1.000
    H3       H        0.56230    0.14600    0.71230    1.000
    C6       C        0.66810    0.19490    0.70310    1.000
    H4       H        0.69750    0.15130    0.71050    1.000
    C7       C        0.70520    0.26250    0.69110    1.000
    C8       C        0.66180    0.32690    0.68020    1.000
    C9       C        0.58110    0.32380    0.68130    1.000
    H5       H        0.55170    0.36740    0.67390    1.000
    P1       P        0.70980    0.42310    0.66170    1.000
    C10      C        0.73800    0.40200    0.61270    1.000
    C11      C        0.79000    0.46000    0.55410    1.000
    C12      C        0.78000    0.46000    0.59440    1.000
    C13      C        0.75700    0.40000    0.53200    1.000
    C14      C        0.71400    0.34200    0.55030    1.000
    C15      C        0.70500    0.34300    0.59060    1.000
    C16      C        0.62060    0.49940    0.66250    1.000
    C17      C        0.54690    0.24330    0.69320    1.000
    C18      C        0.58510    0.18850    0.71600    1.000
    H6       H        0.55650    0.15520    0.73230    1.000
    C19      C        0.66560    0.18300    0.71470    1.000
    H7       H        0.69140    0.14600    0.73010    1.000
    C20      C        0.70790    0.23220    0.69060    1.000
    C21      C        0.66970    0.28700    0.66770    1.000
    H8       H        0.69830    0.32030    0.65140    1.000
    C22      C        0.58920    0.29250    0.66900    1.000
    H9       H        0.56340    0.32950    0.65360    1.000
    C23      C        0.24100    0.32200    0.52240    1.000
    H10      H        0.23360    0.36880    0.53630    1.000
    C24      C        0.24400    0.32200    0.48180    1.000
    H11      H        0.24270    0.36890    0.46790    1.000
    H12      H        0.68690    0.37260    0.67210    1.000
    H13      H        0.66090    0.46260    0.66160    1.000
    H14      H        0.67600    0.30360    0.60290    1.000
    H15      H        0.69180    0.30210    0.53530    1.000
    H16      H        0.76290    0.39990    0.50470    1.000
    H17      H        0.81820    0.49900    0.54180    1.000
    H18      H        0.80240    0.50050    0.60940    1.000
    H19      H        0.62420    0.52500    0.71690    1.000
    H20      H        0.58790    0.49310    0.60990    1.000
    C25      C        0.59960    0.53690    0.69310    1.000
    C26      C        0.57920    0.51940    0.63360    1.000
    O3       O        0.30930    0.23970    0.60600    1.000
    C27      C        0.36640    0.19270    0.63310    1.000
    C28      C        0.21820    0.18740    0.39680    1.000
    H21      H        0.19870    0.14440    0.41060    1.000
    C29      C        0.18830    0.21520    0.35720    1.000
    H22      H        0.14780    0.18990    0.34380    1.000
    O4       O        0.07570    0.20060    0.67320    1.000
    O5       O        0.07470    0.30040    0.71300    1.000
    C30      C        0.04160    0.25010    0.69230    1.000
    C31      C        0.95600    0.24380    0.69330    1.000
    C32      C        0.91250    0.30830    0.70420    1.000
    H23      H        0.93770    0.35400    0.71230    1.000
    C33      C        0.83190    0.30510    0.70310    1.000
    H24      H        0.80250    0.34870    0.71050    1.000
    C34      C        0.79480    0.23750    0.69110    1.000
    C35      C        0.83820    0.17310    0.68020    1.000
    C36      C        0.91890    0.17620    0.68130    1.000
    H25      H        0.94830    0.13260    0.67390    1.000
    P2       P        0.79020    0.07690    0.66170    1.000
    C37      C        0.76200    0.09800    0.61270    1.000
    C38      C        0.71000    0.04000    0.55410    1.000
    C39      C        0.72000    0.04000    0.59440    1.000
    C40      C        0.74300    0.10000    0.53200    1.000
    C41      C        0.78600    0.15800    0.55030    1.000
    C42      C        0.79500    0.15700    0.59060    1.000
    C43      C        0.87940    0.00060    0.66250    1.000
    C44      C        0.95310    0.25670    0.69320    1.000
    C45      C        0.91490    0.31150    0.71600    1.000
    H26      H        0.94350    0.34480    0.73230    1.000
    C46      C        0.83440    0.31700    0.71470    1.000
    H27      H        0.80860    0.35400    0.73010    1.000
    C47      C        0.79210    0.26780    0.69060    1.000
    C48      C        0.83030    0.21300    0.66770    1.000
    H28      H        0.80170    0.17970    0.65140    1.000
    C49      C        0.91080    0.20750    0.66900    1.000
    H29      H        0.93660    0.17050    0.65360    1.000
    C50      C        0.25900    0.17800    0.52240    1.000
    H30      H        0.26640    0.13120    0.53630    1.000
    C51      C        0.25600    0.17800    0.48180    1.000
    H31      H        0.25730    0.13110    0.46790    1.000
    H32      H        0.81310    0.12740    0.67210    1.000
    H33      H        0.83910    0.03740    0.66160    1.000
    H34      H        0.82400    0.19640    0.60290    1.000
    H35      H        0.80820    0.19790    0.53530    1.000
    H36      H        0.73710    0.10010    0.50470    1.000
    H37      H        0.68180    0.00100    0.54180    1.000
    H38      H        0.69760    0.99950    0.60940    1.000
    H39      H        0.87580    0.97500    0.71690    1.000
    H40      H        0.91210    0.00690    0.60990    1.000
    C52      C        0.90040    0.96310    0.69310    1.000
    C53      C        0.92080    0.98060    0.63360    1.000
    O6       O        0.19070    0.26030    0.60600    1.000
    C54      C        0.13360    0.30730    0.63310    1.000
    C55      C        0.18740    0.28180    0.89680    1.000
    H41      H        0.14440    0.30130    0.91060    1.000
    C56      C        0.21520    0.31170    0.85720    1.000
    H42      H        0.18990    0.35220    0.84380    1.000
    O7       O        0.20060    0.42430    0.17320    1.000
    O8       O        0.30040    0.42530    0.21300    1.000
    C57      C        0.25010    0.45840    0.19230    1.000
    C58      C        0.24380    0.54400    0.19330    1.000
    C59      C        0.30830    0.58750    0.20420    1.000
    H43      H        0.35400    0.56230    0.21230    1.000
    C60      C        0.30510    0.66810    0.20310    1.000
    H44      H        0.34870    0.69750    0.21050    1.000
    C61      C        0.23750    0.70520    0.19110    1.000
    C62      C        0.17310    0.66180    0.18020    1.000
    C63      C        0.17620    0.58110    0.18130    1.000
    H45      H        0.13260    0.55170    0.17390    1.000
    P3       P        0.07690    0.70980    0.16170    1.000
    C64      C        0.09800    0.73800    0.11270    1.000
    C65      C        0.04000    0.79000    0.05410    1.000
    C66      C        0.04000    0.78000    0.09440    1.000
    C67      C        0.10000    0.75700    0.03200    1.000
    C68      C        0.15800    0.71400    0.05030    1.000
    C69      C        0.15700    0.70500    0.09060    1.000
    C70      C        0.00060    0.62060    0.16250    1.000
    C71      C        0.25670    0.54690    0.19320    1.000
    C72      C        0.31150    0.58510    0.21600    1.000
    H46      H        0.34480    0.55650    0.23230    1.000
    C73      C        0.31700    0.66560    0.21470    1.000
    H47      H        0.35400    0.69140    0.23010    1.000
    C74      C        0.26780    0.70790    0.19060    1.000
    C75      C        0.21300    0.66970    0.16770    1.000
    H48      H        0.17970    0.69830    0.15140    1.000
    C76      C        0.20750    0.58920    0.16900    1.000
    H49      H        0.17050    0.56340    0.15360    1.000
    C77      C        0.17800    0.24100    0.02240    1.000
    H50      H        0.13120    0.23360    0.03630    1.000
    C78      C        0.17800    0.24400    0.98180    1.000
    H51      H        0.13110    0.24270    0.96790    1.000
    H52      H        0.12740    0.68690    0.17210    1.000
    H53      H        0.03740    0.66090    0.16160    1.000
    H54      H        0.19640    0.67600    0.10290    1.000
    H55      H        0.19790    0.69180    0.03530    1.000
    H56      H        0.10010    0.76290    0.00470    1.000
    H57      H        0.00100    0.81820    0.04180    1.000
    H58      H        0.99950    0.80240    0.10940    1.000
    H59      H        0.97500    0.62420    0.21690    1.000
    H60      H        0.00690    0.58790    0.10990    1.000
    C79      C        0.96310    0.59960    0.19310    1.000
    C80      C        0.98060    0.57920    0.13360    1.000
    O9       O        0.26030    0.30930    0.10600    1.000
    C81      C        0.30730    0.36640    0.13310    1.000
    C82      C        0.31260    0.21820    0.89680    1.000
    H61      H        0.35560    0.19870    0.91060    1.000
    C83      C        0.28480    0.18830    0.85720    1.000
    H62      H        0.31010    0.14780    0.84380    1.000
    O10      O        0.29940    0.07570    0.17320    1.000
    O11      O        0.19960    0.07470    0.21300    1.000
    C84      C        0.24990    0.04160    0.19230    1.000
    C85      C        0.25620    0.95600    0.19330    1.000
    C86      C        0.19170    0.91250    0.20420    1.000
    H63      H        0.14600    0.93770    0.21230    1.000
    C87      C        0.19490    0.83190    0.20310    1.000
    H64      H        0.15130    0.80250    0.21050    1.000
    C88      C        0.26250    0.79480    0.19110    1.000
    C89      C        0.32690    0.83820    0.18020    1.000
    C90      C        0.32380    0.91890    0.18130    1.000
    H65      H        0.36740    0.94830    0.17390    1.000
    P4       P        0.42310    0.79020    0.16170    1.000
    C91      C        0.40200    0.76200    0.11270    1.000
    C92      C        0.46000    0.71000    0.05410    1.000
    C93      C        0.46000    0.72000    0.09440    1.000
    C94      C        0.40000    0.74300    0.03200    1.000
    C95      C        0.34200    0.78600    0.05030    1.000
    C96      C        0.34300    0.79500    0.09060    1.000
    C97      C        0.49940    0.87940    0.16250    1.000
    C98      C        0.24330    0.95310    0.19320    1.000
    C99      C        0.18850    0.91490    0.21600    1.000
    H66      H        0.15520    0.94350    0.23230    1.000
    C100     C        0.18300    0.83440    0.21470    1.000
    H67      H        0.14600    0.80860    0.23010    1.000
    C101     C        0.23220    0.79210    0.19060    1.000
    C102     C        0.28700    0.83030    0.16770    1.000
    H68      H        0.32030    0.80170    0.15140    1.000
    C103     C        0.29250    0.91080    0.16900    1.000
    H69      H        0.32950    0.93660    0.15360    1.000
    C104     C        0.32200    0.25900    0.02240    1.000
    H70      H        0.36880    0.26640    0.03630    1.000
    C105     C        0.32200    0.25600    0.98180    1.000
    H71      H        0.36890    0.25730    0.96790    1.000
    H72      H        0.37260    0.81310    0.17210    1.000
    H73      H        0.46260    0.83910    0.16160    1.000
    H74      H        0.30360    0.82400    0.10290    1.000
    H75      H        0.30210    0.80820    0.03530    1.000
    H76      H        0.39990    0.73710    0.00470    1.000
    H77      H        0.49900    0.68180    0.04180    1.000
    H78      H        0.50050    0.69760    0.10940    1.000
    H79      H        0.52500    0.87580    0.21690    1.000
    H80      H        0.49310    0.91210    0.10990    1.000
    C106     C        0.53690    0.90040    0.19310    1.000
    C107     C        0.51940    0.92080    0.13360    1.000
    O12      O        0.23970    0.19070    0.10600    1.000
    C108     C        0.19270    0.13360    0.13310    1.000
    C109     C        0.28180    0.18740    0.89680    1.000
    H81      H        0.30130    0.14440    0.91060    1.000
    C110     C        0.31170    0.21520    0.85720    1.000
    H82      H        0.35220    0.18990    0.84380    1.000
    O13      O        0.42430    0.20060    0.17320    1.000
    O14      O        0.42530    0.30040    0.21300    1.000
    C111     C        0.45840    0.25010    0.19230    1.000
    C112     C        0.54400    0.24380    0.19330    1.000
    C113     C        0.58750    0.30830    0.20420    1.000
    H83      H        0.56230    0.35400    0.21230    1.000
    C114     C        0.66810    0.30510    0.20310    1.000
    H84      H        0.69750    0.34870    0.21050    1.000
    C115     C        0.70520    0.23750    0.19110    1.000
    C116     C        0.66180    0.17310    0.18020    1.000
    C117     C        0.58110    0.17620    0.18130    1.000
    H85      H        0.55170    0.13260    0.17390    1.000
    P5       P        0.70980    0.07690    0.16170    1.000
    C118     C        0.73800    0.09800    0.11270    1.000
    C119     C        0.79000    0.04000    0.05410    1.000
    C120     C        0.78000    0.04000    0.09440    1.000
    C121     C        0.75700    0.10000    0.03200    1.000
    C122     C        0.71400    0.15800    0.05030    1.000
    C123     C        0.70500    0.15700    0.09060    1.000
    C124     C        0.62060    0.00060    0.16250    1.000
    C125     C        0.54690    0.25670    0.19320    1.000
    C126     C        0.58510    0.31150    0.21600    1.000
    H86      H        0.55650    0.34480    0.23230    1.000
    C127     C        0.66560    0.31700    0.21470    1.000
    H87      H        0.69140    0.35400    0.23010    1.000
    C128     C        0.70790    0.26780    0.19060    1.000
    C129     C        0.66970    0.21300    0.16770    1.000
    H88      H        0.69830    0.17970    0.15140    1.000
    C130     C        0.58920    0.20750    0.16900    1.000
    H89      H        0.56340    0.17050    0.15360    1.000
    C131     C        0.24100    0.17800    0.02240    1.000
    H90      H        0.23360    0.13120    0.03630    1.000
    C132     C        0.24400    0.17800    0.98180    1.000
    H91      H        0.24270    0.13110    0.96790    1.000
    H92      H        0.68690    0.12740    0.17210    1.000
    H93      H        0.66090    0.03740    0.16160    1.000
    H94      H        0.67600    0.19640    0.10290    1.000
    H95      H        0.69180    0.19790    0.03530    1.000
    H96      H        0.76290    0.10010    0.00470    1.000
    H97      H        0.81820    0.00100    0.04180    1.000
    H98      H        0.80240    0.99950    0.10940    1.000
    H99      H        0.62420    0.97500    0.21690    1.000
    H100     H        0.58790    0.00690    0.10990    1.000
    C133     C        0.59960    0.96310    0.19310    1.000
    C134     C        0.57920    0.98060    0.13360    1.000
    O15      O        0.30930    0.26030    0.10600    1.000
    C135     C        0.36640    0.30730    0.13310    1.000
    C136     C        0.21820    0.31260    0.89680    1.000
    H101     H        0.19870    0.35560    0.91060    1.000
    C137     C        0.18830    0.28480    0.85720    1.000
    H102     H        0.14780    0.31010    0.84380    1.000
    O16      O        0.07570    0.29940    0.17320    1.000
    O17      O        0.07470    0.19960    0.21300    1.000
    C138     C        0.04160    0.24990    0.19230    1.000
    C139     C        0.95600    0.25620    0.19330    1.000
    C140     C        0.91250    0.19170    0.20420    1.000
    H103     H        0.93770    0.14600    0.21230    1.000
    C141     C        0.83190    0.19490    0.20310    1.000
    H104     H        0.80250    0.15130    0.21050    1.000
    C142     C        0.79480    0.26250    0.19110    1.000
    C143     C        0.83820    0.32690    0.18020    1.000
    C144     C        0.91890    0.32380    0.18130    1.000
    H105     H        0.94830    0.36740    0.17390    1.000
    P6       P        0.79020    0.42310    0.16170    1.000
    C145     C        0.76200    0.40200    0.11270    1.000
    C146     C        0.71000    0.46000    0.05410    1.000
    C147     C        0.72000    0.46000    0.09440    1.000
    C148     C        0.74300    0.40000    0.03200    1.000
    C149     C        0.78600    0.34200    0.05030    1.000
    C150     C        0.79500    0.34300    0.09060    1.000
    C151     C        0.87940    0.49940    0.16250    1.000
    C152     C        0.95310    0.24330    0.19320    1.000
    C153     C        0.91490    0.18850    0.21600    1.000
    H106     H        0.94350    0.15520    0.23230    1.000
    C154     C        0.83440    0.18300    0.21470    1.000
    H107     H        0.80860    0.14600    0.23010    1.000
    C155     C        0.79210    0.23220    0.19060    1.000
    C156     C        0.83030    0.28700    0.16770    1.000
    H108     H        0.80170    0.32030    0.15140    1.000
    C157     C        0.91080    0.29250    0.16900    1.000
    H109     H        0.93660    0.32950    0.15360    1.000
    C158     C        0.25900    0.32200    0.02240    1.000
    H110     H        0.26640    0.36880    0.03630    1.000
    C159     C        0.25600    0.32200    0.98180    1.000
    H111     H        0.25730    0.36890    0.96790    1.000
    H112     H        0.81310    0.37260    0.17210    1.000
    H113     H        0.83910    0.46260    0.16160    1.000
    H114     H        0.82400    0.30360    0.10290    1.000
    H115     H        0.80820    0.30210    0.03530    1.000
    H116     H        0.73710    0.39990    0.00470    1.000
    H117     H        0.68180    0.49900    0.04180    1.000
    H118     H        0.69760    0.50050    0.10940    1.000
    H119     H        0.87580    0.52500    0.21690    1.000
    H120     H        0.91210    0.49310    0.10990    1.000
    C160     C        0.90040    0.53690    0.19310    1.000
    C161     C        0.92080    0.51940    0.13360    1.000
    O18      O        0.19070    0.23970    0.10600    1.000
    C162     C        0.13360    0.19270    0.13310    1.000
    C163     C        0.18740    0.21820    0.39680    1.000
    H121     H        0.14440    0.19870    0.41060    1.000
    C164     C        0.21520    0.18830    0.35720    1.000
    H122     H        0.18990    0.14780    0.34380    1.000
    O19      O        0.20060    0.07570    0.67320    1.000
    O20      O        0.30040    0.07470    0.71300    1.000
    C165     C        0.25010    0.04160    0.69230    1.000
    C166     C        0.24380    0.95600    0.69330    1.000
    C167     C        0.30830    0.91250    0.70420    1.000
    H123     H        0.35400    0.93770    0.71230    1.000
    C168     C        0.30510    0.83190    0.70310    1.000
    H124     H        0.34870    0.80250    0.71050    1.000
    C169     C        0.23750    0.79480    0.69110    1.000
    C170     C        0.17310    0.83820    0.68020    1.000
    C171     C        0.17620    0.91890    0.68130    1.000
    H125     H        0.13260    0.94830    0.67390    1.000
    P7       P        0.07690    0.79020    0.66170    1.000
    C172     C        0.09800    0.76200    0.61270    1.000
    C173     C        0.04000    0.71000    0.55410    1.000
    C174     C        0.04000    0.72000    0.59440    1.000
    C175     C        0.10000    0.74300    0.53200    1.000
    C176     C        0.15800    0.78600    0.55030    1.000
    C177     C        0.15700    0.79500    0.59060    1.000
    C178     C        0.00060    0.87940    0.66250    1.000
    C179     C        0.25670    0.95310    0.69320    1.000
    C180     C        0.31150    0.91490    0.71600    1.000
    H126     H        0.34480    0.94350    0.73230    1.000
    C181     C        0.31700    0.83440    0.71470    1.000
    H127     H        0.35400    0.80860    0.73010    1.000
    C182     C        0.26780    0.79210    0.69060    1.000
    C183     C        0.21300    0.83030    0.66770    1.000
    H128     H        0.17970    0.80170    0.65140    1.000
    C184     C        0.20750    0.91080    0.66900    1.000
    H129     H        0.17050    0.93660    0.65360    1.000
    C185     C        0.17800    0.25900    0.52240    1.000
    H130     H        0.13120    0.26640    0.53630    1.000
    C186     C        0.17800    0.25600    0.48180    1.000
    H131     H        0.13110    0.25730    0.46790    1.000
    H132     H        0.12740    0.81310    0.67210    1.000
    H133     H        0.03740    0.83910    0.66160    1.000
    H134     H        0.19640    0.82400    0.60290    1.000
    H135     H        0.19790    0.80820    0.53530    1.000
    H136     H        0.10010    0.73710    0.50470    1.000
    H137     H        0.00100    0.68180    0.54180    1.000
    H138     H        0.99950    0.69760    0.60940    1.000
    H139     H        0.97500    0.87580    0.71690    1.000
    H140     H        0.00690    0.91210    0.60990    1.000
    C187     C        0.96310    0.90040    0.69310    1.000
    C188     C        0.98060    0.92080    0.63360    1.000
    O21      O        0.26030    0.19070    0.60600    1.000
    C189     C        0.30730    0.13360    0.63310    1.000
    C190     C        0.31260    0.28180    0.39680    1.000
    H141     H        0.35560    0.30130    0.41060    1.000
    C191     C        0.28480    0.31170    0.35720    1.000
    H142     H        0.31010    0.35220    0.34380    1.000
    O22      O        0.29940    0.42430    0.67320    1.000
    O23      O        0.19960    0.42530    0.71300    1.000
    C192     C        0.24990    0.45840    0.69230    1.000
    C193     C        0.25620    0.54400    0.69330    1.000
    C194     C        0.19170    0.58750    0.70420    1.000
    H143     H        0.14600    0.56230    0.71230    1.000
    C195     C        0.19490    0.66810    0.70310    1.000
    H144     H        0.15130    0.69750    0.71050    1.000
    C196     C        0.26250    0.70520    0.69110    1.000
    C197     C        0.32690    0.66180    0.68020    1.000
    C198     C        0.32380    0.58110    0.68130    1.000
    H145     H        0.36740    0.55170    0.67390    1.000
    P8       P        0.42310    0.70980    0.66170    1.000
    C199     C        0.40200    0.73800    0.61270    1.000
    C200     C        0.46000    0.79000    0.55410    1.000
    C201     C        0.46000    0.78000    0.59440    1.000
    C202     C        0.40000    0.75700    0.53200    1.000
    C203     C        0.34200    0.71400    0.55030    1.000
    C204     C        0.34300    0.70500    0.59060    1.000
    C205     C        0.49940    0.62060    0.66250    1.000
    C206     C        0.24330    0.54690    0.69320    1.000
    C207     C        0.18850    0.58510    0.71600    1.000
    H146     H        0.15520    0.55650    0.73230    1.000
    C208     C        0.18300    0.66560    0.71470    1.000
    H147     H        0.14600    0.69140    0.73010    1.000
    C209     C        0.23220    0.70790    0.69060    1.000
    C210     C        0.28700    0.66970    0.66770    1.000
    H148     H        0.32030    0.69830    0.65140    1.000
    C211     C        0.29250    0.58920    0.66900    1.000
    H149     H        0.32950    0.56340    0.65360    1.000
    C212     C        0.32200    0.24100    0.52240    1.000
    H150     H        0.36880    0.23360    0.53630    1.000
    C213     C        0.32200    0.24400    0.48180    1.000
    H151     H        0.36890    0.24270    0.46790    1.000
    H152     H        0.37260    0.68690    0.67210    1.000
    H153     H        0.46260    0.66090    0.66160    1.000
    H154     H        0.30360    0.67600    0.60290    1.000
    H155     H        0.30210    0.69180    0.53530    1.000
    H156     H        0.39990    0.76290    0.50470    1.000
    H157     H        0.49900    0.81820    0.54180    1.000
    H158     H        0.50050    0.80240    0.60940    1.000
    H159     H        0.52500    0.62420    0.71690    1.000
    H160     H        0.49310    0.58790    0.60990    1.000
    C214     C        0.53690    0.59960    0.69310    1.000
    C215     C        0.51940    0.57920    0.63360    1.000
    O24      O        0.23970    0.30930    0.60600    1.000
    C216     C        0.19270    0.36640    0.63310    1.000
    Zn1      Zn       0.31616    0.31616    0.65541    1.000
    O25      O        0.29490    0.29490    0.27560    1.000
    O26      O        0.30580    0.30580    0.60170    1.000
    C217     C        0.29900    0.29900    0.52050    1.000
    H161     H        0.33320    0.33320    0.53340    1.000
    C218     C        0.29640    0.29640    0.48090    1.000
    H162     H        0.32960    0.32960    0.46680    1.000
    Zn2      Zn       0.18384    0.18384    0.65541    1.000
    O27      O        0.20510    0.20510    0.27560    1.000
    O28      O        0.19420    0.19420    0.60170    1.000
    C219     C        0.20100    0.20100    0.52050    1.000
    H163     H        0.16680    0.16680    0.53340    1.000
    C220     C        0.20360    0.20360    0.48090    1.000
    H164     H        0.17040    0.17040    0.46680    1.000
    Zn3      Zn       0.18384    0.31616    0.15541    1.000
    O29      O        0.20510    0.29490    0.77560    1.000
    O30      O        0.19420    0.30580    0.10170    1.000
    C221     C        0.20100    0.29900    0.02050    1.000
    H165     H        0.16680    0.33320    0.03340    1.000
    C222     C        0.20360    0.29640    0.98090    1.000
    H166     H        0.17040    0.32960    0.96680    1.000
    Zn4      Zn       0.31616    0.18384    0.15541    1.000
    O31      O        0.29490    0.20510    0.77560    1.000
    O32      O        0.30580    0.19420    0.10170    1.000
    C223     C        0.29900    0.20100    0.02050    1.000
    H167     H        0.33320    0.16680    0.03340    1.000
    C224     C        0.29640    0.20360    0.98090    1.000
    H168     H        0.32960    0.17040    0.96680    1.000
    Zn5      Zn       0.18527    0.31473    0.72038    1.000
    C225     C        0.31700    0.18300    0.65290    1.000
    Zn6      Zn       0.31473    0.18527    0.72038    1.000
    C226     C        0.18300    0.31700    0.65290    1.000
    Zn7      Zn       0.18527    0.18527    0.22038    1.000
    C227     C        0.31700    0.31700    0.15290    1.000
    Zn8      Zn       0.31473    0.31473    0.22038    1.000
    C228     C        0.18300    0.18300    0.15290    1.000
    C229     C        0.25000    0.25000    0.58610    1.000
    C230     C        0.25000    0.25000    0.54190    1.000
    C231     C        0.25000    0.25000    0.46100    1.000
    C232     C        0.25000    0.25000    0.41690    1.000
    C233     C        0.25000    0.25000    0.33560    1.000
    C234     C        0.25000    0.25000    0.29290    1.000
    O33      O        0.25000    0.25000    0.68800    1.000
    C235     C        0.25000    0.25000    0.08610    1.000
    C236     C        0.25000    0.25000    0.04190    1.000
    C237     C        0.25000    0.25000    0.96100    1.000
    C238     C        0.25000    0.25000    0.91690    1.000
    C239     C        0.25000    0.25000    0.83560    1.000
    C240     C        0.25000    0.25000    0.79290    1.000
    O34      O        0.25000    0.25000    0.18800    1.000
    C241     C        0.71820    0.81260    0.10320    1.000
    H169     H        0.69870    0.85560    0.08940    1.000
    C242     C        0.68830    0.78480    0.14280    1.000
    H170     H        0.64780    0.81010    0.15620    1.000
    O35      O        0.57570    0.79940    0.82680    1.000
    O36      O        0.57470    0.69960    0.78700    1.000
    C243     C        0.54160    0.74990    0.80770    1.000
    C244     C        0.45600    0.75620    0.80670    1.000
    C245     C        0.41250    0.69170    0.79580    1.000
    H171     H        0.43770    0.64600    0.78770    1.000
    C246     C        0.33190    0.69490    0.79690    1.000
    H172     H        0.30250    0.65130    0.78950    1.000
    C247     C        0.29480    0.76250    0.80890    1.000
    C248     C        0.33820    0.82690    0.81980    1.000
    C249     C        0.41890    0.82380    0.81870    1.000
    H173     H        0.44830    0.86740    0.82610    1.000
    P9       P        0.29020    0.92310    0.83830    1.000
    C250     C        0.26200    0.90200    0.88730    1.000
    C251     C        0.21000    0.96000    0.94590    1.000
    C252     C        0.22000    0.96000    0.90560    1.000
    C253     C        0.24300    0.90000    0.96800    1.000
    C254     C        0.28600    0.84200    0.94970    1.000
    C255     C        0.29500    0.84300    0.90940    1.000
    C256     C        0.37940    0.99940    0.83750    1.000
    C257     C        0.45310    0.74330    0.80680    1.000
    C258     C        0.41490    0.68850    0.78400    1.000
    H174     H        0.44350    0.65520    0.76770    1.000
    C259     C        0.33440    0.68300    0.78530    1.000
    H175     H        0.30860    0.64600    0.76990    1.000
    C260     C        0.29210    0.73220    0.80940    1.000
    C261     C        0.33030    0.78700    0.83230    1.000
    H176     H        0.30170    0.82030    0.84860    1.000
    C262     C        0.41080    0.79250    0.83100    1.000
    H177     H        0.43660    0.82950    0.84640    1.000
    C263     C        0.75900    0.82200    0.97760    1.000
    H178     H        0.76640    0.86880    0.96370    1.000
    C264     C        0.75600    0.82200    0.01820    1.000
    H179     H        0.75730    0.86890    0.03210    1.000
    H180     H        0.31310    0.87260    0.82790    1.000
    H181     H        0.33910    0.96260    0.83840    1.000
    H182     H        0.32400    0.80360    0.89710    1.000
    H183     H        0.30820    0.80210    0.96470    1.000
    H184     H        0.23710    0.89990    0.99530    1.000
    H185     H        0.18180    0.99900    0.95820    1.000
    H186     H        0.19760    0.00050    0.89060    1.000
    H187     H        0.37580    0.02500    0.78310    1.000
    H188     H        0.41210    0.99310    0.89010    1.000
    C265     C        0.40040    0.03690    0.80690    1.000
    C266     C        0.42080    0.01940    0.86640    1.000
    O37      O        0.69070    0.73970    0.89400    1.000
    C267     C        0.63360    0.69270    0.86690    1.000
    C268     C        0.78180    0.68740    0.10320    1.000
    H189     H        0.80130    0.64440    0.08940    1.000
    C269     C        0.81170    0.71520    0.14280    1.000
    H190     H        0.85220    0.68990    0.15620    1.000
    O38      O        0.92430    0.70060    0.82680    1.000
    O39      O        0.92530    0.80040    0.78700    1.000
    C270     C        0.95840    0.75010    0.80770    1.000
    C271     C        0.04400    0.74380    0.80670    1.000
    C272     C        0.08750    0.80830    0.79580    1.000
    H191     H        0.06230    0.85400    0.78770    1.000
    C273     C        0.16810    0.80510    0.79690    1.000
    H192     H        0.19750    0.84870    0.78950    1.000
    C274     C        0.20520    0.73750    0.80890    1.000
    C275     C        0.16180    0.67310    0.81980    1.000
    C276     C        0.08110    0.67620    0.81870    1.000
    H193     H        0.05170    0.63260    0.82610    1.000
    P10      P        0.20980    0.57690    0.83830    1.000
    C277     C        0.23800    0.59800    0.88730    1.000
    C278     C        0.29000    0.54000    0.94590    1.000
    C279     C        0.28000    0.54000    0.90560    1.000
    C280     C        0.25700    0.60000    0.96800    1.000
    C281     C        0.21400    0.65800    0.94970    1.000
    C282     C        0.20500    0.65700    0.90940    1.000
    C283     C        0.12060    0.50060    0.83750    1.000
    C284     C        0.04690    0.75670    0.80680    1.000
    C285     C        0.08510    0.81150    0.78400    1.000
    H194     H        0.05650    0.84480    0.76770    1.000
    C286     C        0.16560    0.81700    0.78530    1.000
    H195     H        0.19140    0.85400    0.76990    1.000
    C287     C        0.20790    0.76780    0.80940    1.000
    C288     C        0.16970    0.71300    0.83230    1.000
    H196     H        0.19830    0.67970    0.84860    1.000
    C289     C        0.08920    0.70750    0.83100    1.000
    H197     H        0.06340    0.67050    0.84640    1.000
    C290     C        0.74100    0.67800    0.97760    1.000
    H198     H        0.73360    0.63120    0.96370    1.000
    C291     C        0.74400    0.67800    0.01820    1.000
    H199     H        0.74270    0.63110    0.03210    1.000
    H200     H        0.18690    0.62740    0.82790    1.000
    H201     H        0.16090    0.53740    0.83840    1.000
    H202     H        0.17600    0.69640    0.89710    1.000
    H203     H        0.19180    0.69790    0.96470    1.000
    H204     H        0.26290    0.60010    0.99530    1.000
    H205     H        0.31820    0.50100    0.95820    1.000
    H206     H        0.30240    0.49950    0.89060    1.000
    H207     H        0.12420    0.47500    0.78310    1.000
    H208     H        0.08790    0.50690    0.89010    1.000
    C292     C        0.09960    0.46310    0.80690    1.000
    C293     C        0.07920    0.48060    0.86640    1.000
    O40      O        0.80930    0.76030    0.89400    1.000
    C294     C        0.86640    0.80730    0.86690    1.000
    C295     C        0.81260    0.78180    0.60320    1.000
    H209     H        0.85560    0.80130    0.58940    1.000
    C296     C        0.78480    0.81170    0.64280    1.000
    H210     H        0.81010    0.85220    0.65620    1.000
    O41      O        0.79940    0.92430    0.32680    1.000
    O42      O        0.69960    0.92530    0.28700    1.000
    C297     C        0.74990    0.95840    0.30770    1.000
    C298     C        0.75620    0.04400    0.30670    1.000
    C299     C        0.69170    0.08750    0.29580    1.000
    H211     H        0.64600    0.06230    0.28770    1.000
    C300     C        0.69490    0.16810    0.29690    1.000
    H212     H        0.65130    0.19750    0.28950    1.000
    C301     C        0.76250    0.20520    0.30890    1.000
    C302     C        0.82690    0.16180    0.31980    1.000
    C303     C        0.82380    0.08110    0.31870    1.000
    H213     H        0.86740    0.05170    0.32610    1.000
    P11      P        0.92310    0.20980    0.33830    1.000
    C304     C        0.90200    0.23800    0.38730    1.000
    C305     C        0.96000    0.29000    0.44590    1.000
    C306     C        0.96000    0.28000    0.40560    1.000
    C307     C        0.90000    0.25700    0.46800    1.000
    C308     C        0.84200    0.21400    0.44970    1.000
    C309     C        0.84300    0.20500    0.40940    1.000
    C310     C        0.99940    0.12060    0.33750    1.000
    C311     C        0.74330    0.04690    0.30680    1.000
    C312     C        0.68850    0.08510    0.28400    1.000
    H214     H        0.65520    0.05650    0.26770    1.000
    C313     C        0.68300    0.16560    0.28530    1.000
    H215     H        0.64600    0.19140    0.26990    1.000
    C314     C        0.73220    0.20790    0.30940    1.000
    C315     C        0.78700    0.16970    0.33230    1.000
    H216     H        0.82030    0.19830    0.34860    1.000
    C316     C        0.79250    0.08920    0.33100    1.000
    H217     H        0.82950    0.06340    0.34640    1.000
    C317     C        0.82200    0.74100    0.47760    1.000
    H218     H        0.86880    0.73360    0.46370    1.000
    C318     C        0.82200    0.74400    0.51820    1.000
    H219     H        0.86890    0.74270    0.53210    1.000
    H220     H        0.87260    0.18690    0.32790    1.000
    H221     H        0.96260    0.16090    0.33840    1.000
    H222     H        0.80360    0.17600    0.39710    1.000
    H223     H        0.80210    0.19180    0.46470    1.000
    H224     H        0.89990    0.26290    0.49530    1.000
    H225     H        0.99900    0.31820    0.45820    1.000
    H226     H        0.00050    0.30240    0.39060    1.000
    H227     H        0.02500    0.12420    0.28310    1.000
    H228     H        0.99310    0.08790    0.39010    1.000
    C319     C        0.03690    0.09960    0.30690    1.000
    C320     C        0.01940    0.07920    0.36640    1.000
    O43      O        0.73970    0.80930    0.39400    1.000
    C321     C        0.69270    0.86640    0.36690    1.000
    C322     C        0.68740    0.71820    0.60320    1.000
    H229     H        0.64440    0.69870    0.58940    1.000
    C323     C        0.71520    0.68830    0.64280    1.000
    H230     H        0.68990    0.64780    0.65620    1.000
    O44      O        0.70060    0.57570    0.32680    1.000
    O45      O        0.80040    0.57470    0.28700    1.000
    C324     C        0.75010    0.54160    0.30770    1.000
    C325     C        0.74380    0.45600    0.30670    1.000
    C326     C        0.80830    0.41250    0.29580    1.000
    H231     H        0.85400    0.43770    0.28770    1.000
    C327     C        0.80510    0.33190    0.29690    1.000
    H232     H        0.84870    0.30250    0.28950    1.000
    C328     C        0.73750    0.29480    0.30890    1.000
    C329     C        0.67310    0.33820    0.31980    1.000
    C330     C        0.67620    0.41890    0.31870    1.000
    H233     H        0.63260    0.44830    0.32610    1.000
    P12      P        0.57690    0.29020    0.33830    1.000
    C331     C        0.59800    0.26200    0.38730    1.000
    C332     C        0.54000    0.21000    0.44590    1.000
    C333     C        0.54000    0.22000    0.40560    1.000
    C334     C        0.60000    0.24300    0.46800    1.000
    C335     C        0.65800    0.28600    0.44970    1.000
    C336     C        0.65700    0.29500    0.40940    1.000
    C337     C        0.50060    0.37940    0.33750    1.000
    C338     C        0.75670    0.45310    0.30680    1.000
    C339     C        0.81150    0.41490    0.28400    1.000
    H234     H        0.84480    0.44350    0.26770    1.000
    C340     C        0.81700    0.33440    0.28530    1.000
    H235     H        0.85400    0.30860    0.26990    1.000
    C341     C        0.76780    0.29210    0.30940    1.000
    C342     C        0.71300    0.33030    0.33230    1.000
    H236     H        0.67970    0.30170    0.34860    1.000
    C343     C        0.70750    0.41080    0.33100    1.000
    H237     H        0.67050    0.43660    0.34640    1.000
    C344     C        0.67800    0.75900    0.47760    1.000
    H238     H        0.63120    0.76640    0.46370    1.000
    C345     C        0.67800    0.75600    0.51820    1.000
    H239     H        0.63110    0.75730    0.53210    1.000
    H240     H        0.62740    0.31310    0.32790    1.000
    H241     H        0.53740    0.33910    0.33840    1.000
    H242     H        0.69640    0.32400    0.39710    1.000
    H243     H        0.69790    0.30820    0.46470    1.000
    H244     H        0.60010    0.23710    0.49530    1.000
    H245     H        0.50100    0.18180    0.45820    1.000
    H246     H        0.49950    0.19760    0.39060    1.000
    H247     H        0.47500    0.37580    0.28310    1.000
    H248     H        0.50690    0.41210    0.39010    1.000
    C346     C        0.46310    0.40040    0.30690    1.000
    C347     C        0.48060    0.42080    0.36640    1.000
    O46      O        0.76030    0.69070    0.39400    1.000
    C348     C        0.80730    0.63360    0.36690    1.000
    C349     C        0.71820    0.68740    0.60320    1.000
    H249     H        0.69870    0.64440    0.58940    1.000
    C350     C        0.68830    0.71520    0.64280    1.000
    H250     H        0.64780    0.68990    0.65620    1.000
    O47      O        0.57570    0.70060    0.32680    1.000
    O48      O        0.57470    0.80040    0.28700    1.000
    C351     C        0.54160    0.75010    0.30770    1.000
    C352     C        0.45600    0.74380    0.30670    1.000
    C353     C        0.41250    0.80830    0.29580    1.000
    H251     H        0.43770    0.85400    0.28770    1.000
    C354     C        0.33190    0.80510    0.29690    1.000
    H252     H        0.30250    0.84870    0.28950    1.000
    C355     C        0.29480    0.73750    0.30890    1.000
    C356     C        0.33820    0.67310    0.31980    1.000
    C357     C        0.41890    0.67620    0.31870    1.000
    H253     H        0.44830    0.63260    0.32610    1.000
    P13      P        0.29020    0.57690    0.33830    1.000
    C358     C        0.26200    0.59800    0.38730    1.000
    C359     C        0.21000    0.54000    0.44590    1.000
    C360     C        0.22000    0.54000    0.40560    1.000
    C361     C        0.24300    0.60000    0.46800    1.000
    C362     C        0.28600    0.65800    0.44970    1.000
    C363     C        0.29500    0.65700    0.40940    1.000
    C364     C        0.37940    0.50060    0.33750    1.000
    C365     C        0.45310    0.75670    0.30680    1.000
    C366     C        0.41490    0.81150    0.28400    1.000
    H254     H        0.44350    0.84480    0.26770    1.000
    C367     C        0.33440    0.81700    0.28530    1.000
    H255     H        0.30860    0.85400    0.26990    1.000
    C368     C        0.29210    0.76780    0.30940    1.000
    C369     C        0.33030    0.71300    0.33230    1.000
    H256     H        0.30170    0.67970    0.34860    1.000
    C370     C        0.41080    0.70750    0.33100    1.000
    H257     H        0.43660    0.67050    0.34640    1.000
    C371     C        0.75900    0.67800    0.47760    1.000
    H258     H        0.76640    0.63120    0.46370    1.000
    C372     C        0.75600    0.67800    0.51820    1.000
    H259     H        0.75730    0.63110    0.53210    1.000
    H260     H        0.31310    0.62740    0.32790    1.000
    H261     H        0.33910    0.53740    0.33840    1.000
    H262     H        0.32400    0.69640    0.39710    1.000
    H263     H        0.30820    0.69790    0.46470    1.000
    H264     H        0.23710    0.60010    0.49530    1.000
    H265     H        0.18180    0.50100    0.45820    1.000
    H266     H        0.19760    0.49950    0.39060    1.000
    H267     H        0.37580    0.47500    0.28310    1.000
    H268     H        0.41210    0.50690    0.39010    1.000
    C373     C        0.40040    0.46310    0.30690    1.000
    C374     C        0.42080    0.48060    0.36640    1.000
    O49      O        0.69070    0.76030    0.39400    1.000
    C375     C        0.63360    0.80730    0.36690    1.000
    C376     C        0.78180    0.81260    0.60320    1.000
    H269     H        0.80130    0.85560    0.58940    1.000
    C377     C        0.81170    0.78480    0.64280    1.000
    H270     H        0.85220    0.81010    0.65620    1.000
    O50      O        0.92430    0.79940    0.32680    1.000
    O51      O        0.92530    0.69960    0.28700    1.000
    C378     C        0.95840    0.74990    0.30770    1.000
    C379     C        0.04400    0.75620    0.30670    1.000
    C380     C        0.08750    0.69170    0.29580    1.000
    H271     H        0.06230    0.64600    0.28770    1.000
    C381     C        0.16810    0.69490    0.29690    1.000
    H272     H        0.19750    0.65130    0.28950    1.000
    C382     C        0.20520    0.76250    0.30890    1.000
    C383     C        0.16180    0.82690    0.31980    1.000
    C384     C        0.08110    0.82380    0.31870    1.000
    H273     H        0.05170    0.86740    0.32610    1.000
    P14      P        0.20980    0.92310    0.33830    1.000
    C385     C        0.23800    0.90200    0.38730    1.000
    C386     C        0.29000    0.96000    0.44590    1.000
    C387     C        0.28000    0.96000    0.40560    1.000
    C388     C        0.25700    0.90000    0.46800    1.000
    C389     C        0.21400    0.84200    0.44970    1.000
    C390     C        0.20500    0.84300    0.40940    1.000
    C391     C        0.12060    0.99940    0.33750    1.000
    C392     C        0.04690    0.74330    0.30680    1.000
    C393     C        0.08510    0.68850    0.28400    1.000
    H274     H        0.05650    0.65520    0.26770    1.000
    C394     C        0.16560    0.68300    0.28530    1.000
    H275     H        0.19140    0.64600    0.26990    1.000
    C395     C        0.20790    0.73220    0.30940    1.000
    C396     C        0.16970    0.78700    0.33230    1.000
    H276     H        0.19830    0.82030    0.34860    1.000
    C397     C        0.08920    0.79250    0.33100    1.000
    H277     H        0.06340    0.82950    0.34640    1.000
    C398     C        0.74100    0.82200    0.47760    1.000
    H278     H        0.73360    0.86880    0.46370    1.000
    C399     C        0.74400    0.82200    0.51820    1.000
    H279     H        0.74270    0.86890    0.53210    1.000
    H280     H        0.18690    0.87260    0.32790    1.000
    H281     H        0.16090    0.96260    0.33840    1.000
    H282     H        0.17600    0.80360    0.39710    1.000
    H283     H        0.19180    0.80210    0.46470    1.000
    H284     H        0.26290    0.89990    0.49530    1.000
    H285     H        0.31820    0.99900    0.45820    1.000
    H286     H        0.30240    0.00050    0.39060    1.000
    H287     H        0.12420    0.02500    0.28310    1.000
    H288     H        0.08790    0.99310    0.39010    1.000
    C400     C        0.09960    0.03690    0.30690    1.000
    C401     C        0.07920    0.01940    0.36640    1.000
    O52      O        0.80930    0.73970    0.39400    1.000
    C402     C        0.86640    0.69270    0.36690    1.000
    C403     C        0.81260    0.71820    0.10320    1.000
    H289     H        0.85560    0.69870    0.08940    1.000
    C404     C        0.78480    0.68830    0.14280    1.000
    H290     H        0.81010    0.64780    0.15620    1.000
    O53      O        0.79940    0.57570    0.82680    1.000
    O54      O        0.69960    0.57470    0.78700    1.000
    C405     C        0.74990    0.54160    0.80770    1.000
    C406     C        0.75620    0.45600    0.80670    1.000
    C407     C        0.69170    0.41250    0.79580    1.000
    H291     H        0.64600    0.43770    0.78770    1.000
    C408     C        0.69490    0.33190    0.79690    1.000
    H292     H        0.65130    0.30250    0.78950    1.000
    C409     C        0.76250    0.29480    0.80890    1.000
    C410     C        0.82690    0.33820    0.81980    1.000
    C411     C        0.82380    0.41890    0.81870    1.000
    H293     H        0.86740    0.44830    0.82610    1.000
    P15      P        0.92310    0.29020    0.83830    1.000
    C412     C        0.90200    0.26200    0.88730    1.000
    C413     C        0.96000    0.21000    0.94590    1.000
    C414     C        0.96000    0.22000    0.90560    1.000
    C415     C        0.90000    0.24300    0.96800    1.000
    C416     C        0.84200    0.28600    0.94970    1.000
    C417     C        0.84300    0.29500    0.90940    1.000
    C418     C        0.99940    0.37940    0.83750    1.000
    C419     C        0.74330    0.45310    0.80680    1.000
    C420     C        0.68850    0.41490    0.78400    1.000
    H294     H        0.65520    0.44350    0.76770    1.000
    C421     C        0.68300    0.33440    0.78530    1.000
    H295     H        0.64600    0.30860    0.76990    1.000
    C422     C        0.73220    0.29210    0.80940    1.000
    C423     C        0.78700    0.33030    0.83230    1.000
    H296     H        0.82030    0.30170    0.84860    1.000
    C424     C        0.79250    0.41080    0.83100    1.000
    H297     H        0.82950    0.43660    0.84640    1.000
    C425     C        0.82200    0.75900    0.97760    1.000
    H298     H        0.86880    0.76640    0.96370    1.000
    C426     C        0.82200    0.75600    0.01820    1.000
    H299     H        0.86890    0.75730    0.03210    1.000
    H300     H        0.87260    0.31310    0.82790    1.000
    H301     H        0.96260    0.33910    0.83840    1.000
    H302     H        0.80360    0.32400    0.89710    1.000
    H303     H        0.80210    0.30820    0.96470    1.000
    H304     H        0.89990    0.23710    0.99530    1.000
    H305     H        0.99900    0.18180    0.95820    1.000
    H306     H        0.00050    0.19760    0.89060    1.000
    H307     H        0.02500    0.37580    0.78310    1.000
    H308     H        0.99310    0.41210    0.89010    1.000
    C427     C        0.03690    0.40040    0.80690    1.000
    C428     C        0.01940    0.42080    0.86640    1.000
    O55      O        0.73970    0.69070    0.89400    1.000
    C429     C        0.69270    0.63360    0.86690    1.000
    C430     C        0.68740    0.78180    0.10320    1.000
    H309     H        0.64440    0.80130    0.08940    1.000
    C431     C        0.71520    0.81170    0.14280    1.000
    H310     H        0.68990    0.85220    0.15620    1.000
    O56      O        0.70060    0.92430    0.82680    1.000
    O57      O        0.80040    0.92530    0.78700    1.000
    C432     C        0.75010    0.95840    0.80770    1.000
    C433     C        0.74380    0.04400    0.80670    1.000
    C434     C        0.80830    0.08750    0.79580    1.000
    H311     H        0.85400    0.06230    0.78770    1.000
    C435     C        0.80510    0.16810    0.79690    1.000
    H312     H        0.84870    0.19750    0.78950    1.000
    C436     C        0.73750    0.20520    0.80890    1.000
    C437     C        0.67310    0.16180    0.81980    1.000
    C438     C        0.67620    0.08110    0.81870    1.000
    H313     H        0.63260    0.05170    0.82610    1.000
    P16      P        0.57690    0.20980    0.83830    1.000
    C439     C        0.59800    0.23800    0.88730    1.000
    C440     C        0.54000    0.29000    0.94590    1.000
    C441     C        0.54000    0.28000    0.90560    1.000
    C442     C        0.60000    0.25700    0.96800    1.000
    C443     C        0.65800    0.21400    0.94970    1.000
    C444     C        0.65700    0.20500    0.90940    1.000
    C445     C        0.50060    0.12060    0.83750    1.000
    C446     C        0.75670    0.04690    0.80680    1.000
    C447     C        0.81150    0.08510    0.78400    1.000
    H314     H        0.84480    0.05650    0.76770    1.000
    C448     C        0.81700    0.16560    0.78530    1.000
    H315     H        0.85400    0.19140    0.76990    1.000
    C449     C        0.76780    0.20790    0.80940    1.000
    C450     C        0.71300    0.16970    0.83230    1.000
    H316     H        0.67970    0.19830    0.84860    1.000
    C451     C        0.70750    0.08920    0.83100    1.000
    H317     H        0.67050    0.06340    0.84640    1.000
    C452     C        0.67800    0.74100    0.97760    1.000
    H318     H        0.63120    0.73360    0.96370    1.000
    C453     C        0.67800    0.74400    0.01820    1.000
    H319     H        0.63110    0.74270    0.03210    1.000
    H320     H        0.62740    0.18690    0.82790    1.000
    H321     H        0.53740    0.16090    0.83840    1.000
    H322     H        0.69640    0.17600    0.89710    1.000
    H323     H        0.69790    0.19180    0.96470    1.000
    H324     H        0.60010    0.26290    0.99530    1.000
    H325     H        0.50100    0.31820    0.95820    1.000
    H326     H        0.49950    0.30240    0.89060    1.000
    H327     H        0.47500    0.12420    0.78310    1.000
    H328     H        0.50690    0.08790    0.89010    1.000
    C454     C        0.46310    0.09960    0.80690    1.000
    C455     C        0.48060    0.07920    0.86640    1.000
    O58      O        0.76030    0.80930    0.89400    1.000
    C456     C        0.80730    0.86640    0.86690    1.000
    Zn9      Zn       0.68384    0.81616    0.84459    1.000
    O59      O        0.70510    0.79490    0.22440    1.000
    O60      O        0.69420    0.80580    0.89830    1.000
    C457     C        0.70100    0.79900    0.97950    1.000
    H329     H        0.66680    0.83320    0.96660    1.000
    C458     C        0.70360    0.79640    0.01910    1.000
    H330     H        0.67040    0.82960    0.03320    1.000
    Zn10     Zn       0.81616    0.68384    0.84459    1.000
    O61      O        0.79490    0.70510    0.22440    1.000
    O62      O        0.80580    0.69420    0.89830    1.000
    C459     C        0.79900    0.70100    0.97950    1.000
    H331     H        0.83320    0.66680    0.96660    1.000
    C460     C        0.79640    0.70360    0.01910    1.000
    H332     H        0.82960    0.67040    0.03320    1.000
    Zn11     Zn       0.81616    0.81616    0.34459    1.000
    O63      O        0.79490    0.79490    0.72440    1.000
    O64      O        0.80580    0.80580    0.39830    1.000
    C461     C        0.79900    0.79900    0.47950    1.000
    H333     H        0.83320    0.83320    0.46660    1.000
    C462     C        0.79640    0.79640    0.51910    1.000
    H334     H        0.82960    0.82960    0.53320    1.000
    Zn12     Zn       0.68384    0.68384    0.34459    1.000
    O65      O        0.70510    0.70510    0.72440    1.000
    O66      O        0.69420    0.69420    0.39830    1.000
    C463     C        0.70100    0.70100    0.47950    1.000
    H335     H        0.66680    0.66680    0.46660    1.000
    C464     C        0.70360    0.70360    0.51910    1.000
    H336     H        0.67040    0.67040    0.53320    1.000
    Zn13     Zn       0.81473    0.81473    0.77962    1.000
    C465     C        0.68300    0.68300    0.84710    1.000
    Zn14     Zn       0.68527    0.68527    0.77962    1.000
    C466     C        0.81700    0.81700    0.84710    1.000
    Zn15     Zn       0.81473    0.68527    0.27962    1.000
    C467     C        0.68300    0.81700    0.34710    1.000
    Zn16     Zn       0.68527    0.81473    0.27962    1.000
    C468     C        0.81700    0.68300    0.34710    1.000
    C469     C        0.75000    0.75000    0.91390    1.000
    C470     C        0.75000    0.75000    0.95810    1.000
    C471     C        0.75000    0.75000    0.03900    1.000
    C472     C        0.75000    0.75000    0.08310    1.000
    C473     C        0.75000    0.75000    0.16440    1.000
    C474     C        0.75000    0.75000    0.20710    1.000
    O67      O        0.75000    0.75000    0.81200    1.000
    C475     C        0.75000    0.75000    0.41390    1.000
    C476     C        0.75000    0.75000    0.45810    1.000
    C477     C        0.75000    0.75000    0.53900    1.000
    C478     C        0.75000    0.75000    0.58310    1.000
    C479     C        0.75000    0.75000    0.66440    1.000
    C480     C        0.75000    0.75000    0.70710    1.000
    O68      O        0.75000    0.75000    0.31200    1.000
