# CIF file generated by openbabel 3.1.0, see https://openbabel.org
data_I
_chemical_name_common 'image0'
_cell_length_a 17.612
_cell_length_b 18.052
_cell_length_c 18.652
_cell_angle_alpha 90
_cell_angle_beta 92.38
_cell_angle_gamma 90
_space_group_name_H-M_alt 'P 1'
_space_group_name_Hall 'P 1'
loop_
    _symmetry_equiv_pos_as_xyz
    x,y,z
loop_
    _atom_site_label
    _atom_site_type_symbol
    _atom_site_fract_x
    _atom_site_fract_y
    _atom_site_fract_z
    _atom_site_occupancy
    Zn1      Zn       0.39673    0.48285    0.28981    1.000
    Zn2      Zn       0.32886    0.61844    0.36410    1.000
    Zn3      Zn       0.41435    0.76978    0.43507    1.000
    O1       O        0.30911    0.80029    0.40869    1.000
    O2       O        0.56166    0.55593    0.61923    1.000
    O3       O        0.70928    0.95456    0.22294    1.000
    O4       O        0.64523    0.47752    0.57360    1.000
    O5       O        0.76081    0.06145    0.18633    1.000
    O6       O        0.29184    0.71727    0.31954    1.000
    C1       C        0.59583    0.52757    0.56699    1.000
    C2       C        0.43598    0.65496    0.17759    1.000
    H1       H        0.38680    0.65160    0.15490    1.000
    C3       C        0.60084    0.56413    0.36838    1.000
    H2       H        0.63190    0.55230    0.32960    1.000
    C4       C        0.57608    0.55687    0.49365    1.000
    C5       C        0.56674    0.69523    0.17473    1.000
    H3       H        0.60710    0.71730    0.15010    1.000
    C6       C        0.51291    0.60233    0.48271    1.000
    H4       H        0.48400    0.61630    0.52240    1.000
    C7       C        0.76488    0.99755    0.21204    1.000
    C8       C        0.62009    0.53698    0.43616    1.000
    H5       H        0.66270    0.50520    0.44350    1.000
    C9       C        0.44826    0.62723    0.24741    1.000
    C10      C        0.49479    0.68736    0.14109    1.000
    C11      C        0.84184    0.96693    0.23197    1.000
    C12      C        0.19881    0.81035    0.33220    1.000
    C13      C        0.51999    0.63652    0.28235    1.000
    C14      C        0.57833    0.67028    0.24467    1.000
    H6       H        0.62700    0.67610    0.26780    1.000
    C15      C        0.53654    0.60869    0.35589    1.000
    C16      C        0.27169    0.77263    0.35530    1.000
    C17      C        0.84879    0.89325    0.25090    1.000
    H7       H        0.80510    0.86250    0.25110    1.000
    C18      C        0.92009    0.86420    0.26980    1.000
    H8       H        0.92460    0.81350    0.28300    1.000
    C19      C        0.15713    0.78327    0.27316    1.000
    H9       H        0.17530    0.74180    0.24760    1.000
    C20      C        0.98470    0.90819    0.26960    1.000
    C21      C        0.17246    0.87066    0.37002    1.000
    H10      H        0.20140    0.88960    0.41000    1.000
    C22      C        0.08881    0.81660    0.25110    1.000
    C23      C        0.10359    0.90315    0.34923    1.000
    H11      H        0.08550    0.94420    0.37540    1.000
    C24      C        0.90554    0.01169    0.23091    1.000
    H12      H        0.90090    0.06230    0.21730    1.000
    C25      C        0.97682    0.98199    0.25000    1.000
    O7       O        0.42786    0.66931    0.40363    1.000
    O8       O        0.39226    0.58873    0.27720    1.000
    N1       N        0.52575    0.33938    0.12957    1.000
    N2       N        0.45532    0.42343    0.21700    1.000
    O9       O        0.41453    0.70533    0.03688    1.000
    O10      O        0.53616    0.72881    0.02776    1.000
    C26      C        0.49149    0.62775    0.41416    1.000
    C27      C        0.48259    0.70920    0.06424    1.000
    C28      C        0.51814    0.38291    0.25574    1.000
    H13      H        0.49720    0.35220    0.29420    1.000
    H14      H        0.55420    0.41890    0.27830    1.000
    C29      C        0.55998    0.33338    0.20379    1.000
    H15      H        0.61410    0.34810    0.20380    1.000
    H16      H        0.55750    0.28130    0.22010    1.000
    C30      C        0.53030    0.41833    0.10707    1.000
    H17      H        0.50710    0.42400    0.05810    1.000
    H18      H        0.58420    0.43360    0.10590    1.000
    C31      C        0.44418    0.31858    0.13088    1.000
    H19      H        0.43970    0.26610    0.14560    1.000
    H20      H        0.42040    0.32370    0.08210    1.000
    C32      C        0.40233    0.36798    0.18320    1.000
    H21      H        0.36010    0.39390    0.15710    1.000
    H22      H        0.38050    0.33690    0.22090    1.000
    C33      C        0.48861    0.46829    0.15938    1.000
    H23      H        0.52470    0.50480    0.18100    1.000
    H24      H        0.44770    0.49580    0.13290    1.000
    C34      C        0.06066    0.87638    0.29051    1.000
    O11      O        0.05080    0.79390    0.18870    1.000
    H25      H        0.07050    0.75460    0.17400    1.000
    O12      O        0.04130    0.02870    0.24240    1.000
    H26      H        0.08120    0.00460    0.25240    1.000
    O13      O        0.91910    0.78750    0.29320    1.000
    H27      H        0.89750    0.76140    0.26110    1.000
    O14      O        0.08330    0.96950    0.38500    1.000
    H28      H        0.08520    0.96230    0.42950    1.000
    H29      H        0.02050    0.01280    0.24940    1.000
    H30      H        0.06130    0.79910    0.20970    1.000
    Zn4      Zn       0.60327    0.98285    0.21019    1.000
    Zn5      Zn       0.67114    0.11844    0.13590    1.000
    Zn6      Zn       0.58565    0.26978    0.06493    1.000
    O15      O        0.69089    0.30029    0.09131    1.000
    O16      O        0.43834    0.05593    0.88077    1.000
    O17      O        0.29072    0.45456    0.27706    1.000
    O18      O        0.35477    0.97752    0.92640    1.000
    O19      O        0.23919    0.56145    0.31367    1.000
    O20      O        0.70816    0.21727    0.18046    1.000
    C35      C        0.40417    0.02757    0.93301    1.000
    C36      C        0.56402    0.15496    0.32241    1.000
    H31      H        0.61320    0.15160    0.34510    1.000
    C37      C        0.39916    0.06413    0.13162    1.000
    H32      H        0.36810    0.05230    0.17040    1.000
    C38      C        0.42392    0.05687    0.00635    1.000
    C39      C        0.43326    0.19523    0.32527    1.000
    H33      H        0.39290    0.21730    0.34990    1.000
    C40      C        0.48709    0.10233    0.01729    1.000
    H34      H        0.51600    0.11630    0.97760    1.000
    C41      C        0.23512    0.49755    0.28796    1.000
    C42      C        0.37991    0.03698    0.06384    1.000
    H35      H        0.33730    0.00520    0.05650    1.000
    C43      C        0.55174    0.12723    0.25259    1.000
    C44      C        0.50521    0.18736    0.35891    1.000
    C45      C        0.15816    0.46693    0.26803    1.000
    C46      C        0.80119    0.31035    0.16780    1.000
    C47      C        0.48001    0.13652    0.21765    1.000
    C48      C        0.42167    0.17028    0.25533    1.000
    H36      H        0.37300    0.17610    0.23220    1.000
    C49      C        0.46346    0.10869    0.14411    1.000
    C50      C        0.72831    0.27263    0.14470    1.000
    C51      C        0.15121    0.39325    0.24910    1.000
    H37      H        0.19490    0.36250    0.24890    1.000
    C52      C        0.07991    0.36420    0.23020    1.000
    H38      H        0.07540    0.31350    0.21700    1.000
    C53      C        0.84287    0.28327    0.22684    1.000
    H39      H        0.82470    0.24180    0.25240    1.000
    C54      C        0.01530    0.40819    0.23040    1.000
    C55      C        0.82754    0.37066    0.12998    1.000
    H40      H        0.79860    0.38960    0.09000    1.000
    C56      C        0.91119    0.31660    0.24890    1.000
    C57      C        0.89641    0.40315    0.15077    1.000
    H41      H        0.91450    0.44420    0.12460    1.000
    C58      C        0.09446    0.51169    0.26909    1.000
    H42      H        0.09910    0.56230    0.28270    1.000
    C59      C        0.02318    0.48199    0.25000    1.000
    O21      O        0.57214    0.16931    0.09637    1.000
    O22      O        0.60774    0.08873    0.22280    1.000
    N3       N        0.47425    0.83938    0.37043    1.000
    N4       N        0.54468    0.92343    0.28300    1.000
    O23      O        0.58547    0.20533    0.46312    1.000
    O24      O        0.46384    0.22881    0.47224    1.000
    C60      C        0.50851    0.12775    0.08584    1.000
    C61      C        0.51741    0.20920    0.43576    1.000
    C62      C        0.48186    0.88291    0.24426    1.000
    H43      H        0.50280    0.85220    0.20580    1.000
    H44      H        0.44580    0.91890    0.22170    1.000
    C63      C        0.44002    0.83338    0.29621    1.000
    H45      H        0.38590    0.84810    0.29620    1.000
    H46      H        0.44250    0.78130    0.27990    1.000
    C64      C        0.46970    0.91833    0.39293    1.000
    H47      H        0.49290    0.92400    0.44190    1.000
    H48      H        0.41580    0.93360    0.39410    1.000
    C65      C        0.55582    0.81858    0.36912    1.000
    H49      H        0.56030    0.76610    0.35440    1.000
    H50      H        0.57960    0.82370    0.41790    1.000
    C66      C        0.59767    0.86798    0.31680    1.000
    H51      H        0.63990    0.89390    0.34290    1.000
    H52      H        0.61950    0.83690    0.27910    1.000
    C67      C        0.51139    0.96829    0.34062    1.000
    H53      H        0.47530    0.00480    0.31900    1.000
    H54      H        0.55230    0.99580    0.36710    1.000
    C68      C        0.93934    0.37638    0.20949    1.000
    O25      O        0.94920    0.29390    0.31130    1.000
    H55      H        0.92950    0.25460    0.32600    1.000
    O26      O        0.95870    0.52870    0.25760    1.000
    H56      H        0.91880    0.50460    0.24760    1.000
    O27      O        0.08090    0.28750    0.20680    1.000
    H57      H        0.10250    0.26140    0.23890    1.000
    O28      O        0.91670    0.46950    0.11500    1.000
    H58      H        0.91480    0.46230    0.07050    1.000
    H59      H        0.97950    0.51280    0.25060    1.000
    H60      H        0.93870    0.29910    0.29030    1.000
    Zn7      Zn       0.60327    0.51715    0.71019    1.000
    Zn8      Zn       0.67114    0.38156    0.63590    1.000
    Zn9      Zn       0.58565    0.23022    0.56493    1.000
    O29      O        0.69089    0.19971    0.59131    1.000
    O30      O        0.43834    0.44407    0.38077    1.000
    O31      O        0.29072    0.04544    0.77706    1.000
    O32      O        0.35477    0.52248    0.42640    1.000
    O33      O        0.23919    0.93855    0.81367    1.000
    O34      O        0.70816    0.28273    0.68046    1.000
    C69      C        0.40417    0.47243    0.43301    1.000
    C70      C        0.56402    0.34504    0.82241    1.000
    H61      H        0.61320    0.34840    0.84510    1.000
    C71      C        0.39916    0.43587    0.63162    1.000
    H62      H        0.36810    0.44770    0.67040    1.000
    C72      C        0.42392    0.44313    0.50635    1.000
    C73      C        0.43326    0.30477    0.82527    1.000
    H63      H        0.39290    0.28270    0.84990    1.000
    C74      C        0.48709    0.39767    0.51729    1.000
    H64      H        0.51600    0.38370    0.47760    1.000
    C75      C        0.23512    0.00245    0.78796    1.000
    C76      C        0.37991    0.46302    0.56384    1.000
    H65      H        0.33730    0.49480    0.55650    1.000
    C77      C        0.55174    0.37277    0.75259    1.000
    C78      C        0.50521    0.31264    0.85891    1.000
    C79      C        0.15816    0.03307    0.76803    1.000
    C80      C        0.80119    0.18965    0.66780    1.000
    C81      C        0.48001    0.36348    0.71765    1.000
    C82      C        0.42167    0.32972    0.75533    1.000
    H66      H        0.37300    0.32390    0.73220    1.000
    C83      C        0.46346    0.39131    0.64411    1.000
    C84      C        0.72831    0.22737    0.64470    1.000
    C85      C        0.15121    0.10675    0.74910    1.000
    H67      H        0.19490    0.13750    0.74890    1.000
    C86      C        0.07991    0.13580    0.73020    1.000
    H68      H        0.07540    0.18650    0.71700    1.000
    C87      C        0.84287    0.21673    0.72684    1.000
    H69      H        0.82470    0.25820    0.75240    1.000
    C88      C        0.01530    0.09181    0.73040    1.000
    C89      C        0.82754    0.12934    0.62998    1.000
    H70      H        0.79860    0.11040    0.59000    1.000
    C90      C        0.91119    0.18340    0.74890    1.000
    C91      C        0.89641    0.09685    0.65077    1.000
    H71      H        0.91450    0.05580    0.62460    1.000
    C92      C        0.09446    0.98831    0.76909    1.000
    H72      H        0.09910    0.93770    0.78270    1.000
    C93      C        0.02318    0.01801    0.75000    1.000
    O35      O        0.57214    0.33069    0.59637    1.000
    O36      O        0.60774    0.41127    0.72280    1.000
    N5       N        0.47425    0.66062    0.87043    1.000
    N6       N        0.54468    0.57657    0.78300    1.000
    O37      O        0.58547    0.29467    0.96312    1.000
    O38      O        0.46384    0.27119    0.97224    1.000
    C94      C        0.50851    0.37225    0.58584    1.000
    C95      C        0.51741    0.29080    0.93576    1.000
    C96      C        0.48186    0.61709    0.74426    1.000
    H73      H        0.50280    0.64780    0.70580    1.000
    H74      H        0.44580    0.58110    0.72170    1.000
    C97      C        0.44002    0.66662    0.79621    1.000
    H75      H        0.38590    0.65190    0.79620    1.000
    H76      H        0.44250    0.71870    0.77990    1.000
    C98      C        0.46970    0.58167    0.89293    1.000
    H77      H        0.49290    0.57600    0.94190    1.000
    H78      H        0.41580    0.56640    0.89410    1.000
    C99      C        0.55582    0.68142    0.86912    1.000
    H79      H        0.56030    0.73390    0.85440    1.000
    H80      H        0.57960    0.67630    0.91790    1.000
    C100     C        0.59767    0.63202    0.81680    1.000
    H81      H        0.63990    0.60610    0.84290    1.000
    H82      H        0.61950    0.66310    0.77910    1.000
    C101     C        0.51139    0.53171    0.84062    1.000
    H83      H        0.47530    0.49520    0.81900    1.000
    H84      H        0.55230    0.50420    0.86710    1.000
    C102     C        0.93934    0.12362    0.70949    1.000
    O39      O        0.94920    0.20610    0.81130    1.000
    H85      H        0.92950    0.24540    0.82600    1.000
    O40      O        0.95870    0.97130    0.75760    1.000
    H86      H        0.91880    0.99540    0.74760    1.000
    O41      O        0.08090    0.21250    0.70680    1.000
    H87      H        0.10250    0.23860    0.73890    1.000
    O42      O        0.91670    0.03050    0.61500    1.000
    H88      H        0.91480    0.03770    0.57050    1.000
    H89      H        0.97950    0.98720    0.75060    1.000
    H90      H        0.93870    0.20090    0.79030    1.000
    Zn10     Zn       0.39673    0.01715    0.78980    1.000
    Zn11     Zn       0.32886    0.88156    0.86410    1.000
    Zn12     Zn       0.41435    0.73022    0.93507    1.000
    O43      O        0.30911    0.69971    0.90869    1.000
    O44      O        0.56166    0.94407    0.11923    1.000
    O45      O        0.70928    0.54544    0.72294    1.000
    O46      O        0.64523    0.02248    0.07360    1.000
    O47      O        0.76081    0.43855    0.68633    1.000
    O48      O        0.29184    0.78273    0.81954    1.000
    C103     C        0.59583    0.97243    0.06699    1.000
    C104     C        0.43598    0.84504    0.67759    1.000
    H91      H        0.38680    0.84840    0.65490    1.000
    C105     C        0.60084    0.93587    0.86838    1.000
    H92      H        0.63190    0.94770    0.82960    1.000
    C106     C        0.57608    0.94313    0.99365    1.000
    C107     C        0.56674    0.80477    0.67473    1.000
    H93      H        0.60710    0.78270    0.65010    1.000
    C108     C        0.51291    0.89767    0.98271    1.000
    H94      H        0.48400    0.88370    0.02240    1.000
    C109     C        0.76488    0.50245    0.71204    1.000
    C110     C        0.62009    0.96302    0.93616    1.000
    H95      H        0.66270    0.99480    0.94350    1.000
    C111     C        0.44826    0.87277    0.74741    1.000
    C112     C        0.49479    0.81264    0.64109    1.000
    C113     C        0.84184    0.53307    0.73197    1.000
    C114     C        0.19881    0.68965    0.83220    1.000
    C115     C        0.51999    0.86348    0.78235    1.000
    C116     C        0.57833    0.82972    0.74467    1.000
    H96      H        0.62700    0.82390    0.76780    1.000
    C117     C        0.53654    0.89131    0.85589    1.000
    C118     C        0.27169    0.72737    0.85530    1.000
    C119     C        0.84879    0.60675    0.75090    1.000
    H97      H        0.80510    0.63750    0.75110    1.000
    C120     C        0.92009    0.63580    0.76980    1.000
    H98      H        0.92460    0.68650    0.78300    1.000
    C121     C        0.15713    0.71673    0.77316    1.000
    H99      H        0.17530    0.75820    0.74760    1.000
    C122     C        0.98470    0.59181    0.76960    1.000
    C123     C        0.17246    0.62934    0.87002    1.000
    H100     H        0.20140    0.61040    0.91000    1.000
    C124     C        0.08881    0.68340    0.75110    1.000
    C125     C        0.10359    0.59685    0.84923    1.000
    H101     H        0.08550    0.55580    0.87540    1.000
    C126     C        0.90554    0.48831    0.73091    1.000
    H102     H        0.90090    0.43770    0.71730    1.000
    C127     C        0.97682    0.51801    0.75000    1.000
    O49      O        0.42786    0.83069    0.90363    1.000
    O50      O        0.39226    0.91127    0.77720    1.000
    N7       N        0.52575    0.16062    0.62957    1.000
    N8       N        0.45532    0.07657    0.71700    1.000
    O51      O        0.41453    0.79467    0.53688    1.000
    O52      O        0.53616    0.77119    0.52776    1.000
    C128     C        0.49149    0.87225    0.91416    1.000
    C129     C        0.48259    0.79080    0.56424    1.000
    C130     C        0.51814    0.11709    0.75574    1.000
    H103     H        0.49720    0.14780    0.79420    1.000
    H104     H        0.55420    0.08110    0.77830    1.000
    C131     C        0.55998    0.16662    0.70379    1.000
    H105     H        0.61410    0.15190    0.70380    1.000
    H106     H        0.55750    0.21870    0.72010    1.000
    C132     C        0.53030    0.08167    0.60707    1.000
    H107     H        0.50710    0.07600    0.55810    1.000
    H108     H        0.58420    0.06640    0.60590    1.000
    C133     C        0.44418    0.18142    0.63088    1.000
    H109     H        0.43970    0.23390    0.64560    1.000
    H110     H        0.42040    0.17630    0.58210    1.000
    C134     C        0.40233    0.13202    0.68320    1.000
    H111     H        0.36010    0.10610    0.65710    1.000
    H112     H        0.38050    0.16310    0.72090    1.000
    C135     C        0.48861    0.03171    0.65938    1.000
    H113     H        0.52470    0.99520    0.68100    1.000
    H114     H        0.44770    0.00420    0.63290    1.000
    C136     C        0.06066    0.62362    0.79051    1.000
    O53      O        0.05080    0.70610    0.68870    1.000
    H115     H        0.07050    0.74540    0.67400    1.000
    O54      O        0.04130    0.47130    0.74240    1.000
    H116     H        0.08120    0.49540    0.75240    1.000
    O55      O        0.91910    0.71250    0.79320    1.000
    H117     H        0.89750    0.73860    0.76110    1.000
    O56      O        0.08330    0.53050    0.88500    1.000
    H118     H        0.08520    0.53770    0.92950    1.000
    H119     H        0.02050    0.48720    0.74940    1.000
    H120     H        0.06130    0.70090    0.70970    1.000
