# CIF file generated by openbabel 3.1.0, see https://openbabel.org
data_I
_chemical_name_common 'GUJGAU_clean'
_cell_length_a 13.3299
_cell_length_b 13.6362
_cell_length_c 15.29
_cell_angle_alpha 108.916
_cell_angle_beta 101.898
_cell_angle_gamma 111.691
_space_group_name_H-M_alt 'P 1'
_space_group_name_Hall 'P 1'
loop_
    _symmetry_equiv_pos_as_xyz
    x,y,z
loop_
    _atom_site_label
    _atom_site_type_symbol
    _atom_site_fract_x
    _atom_site_fract_y
    _atom_site_fract_z
    _atom_site_occupancy
    La1      La       0.31604    0.35235    0.57350    1.000
    La2      La       0.09936    0.10653    0.65392    1.000
    La3      La       0.68396    0.64765    0.42650    1.000
    La4      La       0.90064    0.89347    0.34607    1.000
    P1       P        0.98740    0.17602    0.44251    1.000
    P2       P        0.41857    0.22557    0.73460    1.000
    P3       P        0.21765    0.07775    0.43968    1.000
    P4       P        0.38499    0.40817    0.36889    1.000
    P5       P        0.81688    0.82315    0.07088    1.000
    P6       P        0.01260    0.82398    0.55749    1.000
    P7       P        0.58143    0.77443    0.26540    1.000
    P8       P        0.78235    0.92225    0.56032    1.000
    P9       P        0.61501    0.59183    0.63111    1.000
    P10      P        0.18312    0.17685    0.92912    1.000
    H1       H        0.06690    0.41520    0.53330    1.000
    H2       H        0.41630    0.33860    0.93250    1.000
    H3       H        0.41000    0.05610    0.55910    1.000
    H4       H        0.15800    0.23700    0.12580    1.000
    H5       H        0.96540    0.08330    0.22780    1.000
    H6       H        0.06110    0.44370    0.86900    1.000
    H7       H        0.11530    0.63780    0.97310    1.000
    H8       H        0.24530    0.78990    0.95340    1.000
    H9       H        0.32490    0.75030    0.83580    1.000
    H10      H        0.92120    0.27090    0.55780    1.000
    H11      H        0.84240    0.23480    0.44940    1.000
    H12      H        0.88180    0.45450    0.55190    1.000
    H13      H        0.98290    0.47630    0.64170    1.000
    H14      H        0.98400    0.34540    0.36510    1.000
    H15      H        0.88340    0.37420    0.38020    1.000
    H16      H        0.59680    0.36160    0.86560    1.000
    H17      H        0.53170    0.25820    0.89020    1.000
    H18      H        0.58390    0.40060    0.05820    1.000
    H19      H        0.64650    0.50450    0.03310    1.000
    H20      H        0.53140    0.51920    0.88950    1.000
    H21      H        0.40020    0.42480    0.83000    1.000
    H22      H        0.25300    0.92320    0.36590    1.000
    H23      H        0.21820    0.91490    0.45550    1.000
    H24      H        0.45130    0.01930    0.38410    1.000
    H25      H        0.47080    0.14080    0.45970    1.000
    H26      H        0.35130    0.86140    0.51830    1.000
    H27      H        0.37830    0.84660    0.42110    1.000
    H28      H        0.34400    0.34750    0.20060    1.000
    H29      H        0.29200    0.43120    0.23800    1.000
    H30      H        0.23450    0.14010    0.19390    1.000
    H31      H        0.18920    0.17660    0.27980    1.000
    H32      H        0.10560    0.30470    0.29220    1.000
    H33      H        0.09380    0.35650    0.21490    1.000
    H34      H        0.95420    0.17020    0.08950    1.000
    H35      H        0.91270    0.20090    0.17880    1.000
    H36      H        0.05550    0.98610    0.16310    1.000
    H37      H        0.04610    0.02580    0.07760    1.000
    H38      H        0.78290    0.98540    0.12120    1.000
    H39      H        0.82290    0.97640    0.03100    1.000
    H40      H        0.39240    0.26900    0.38270    1.000
    H41      H        0.93310    0.58480    0.46670    1.000
    H42      H        0.58370    0.66140    0.06750    1.000
    H43      H        0.59000    0.94390    0.44090    1.000
    H44      H        0.84200    0.76300    0.87420    1.000
    H45      H        0.03460    0.91670    0.77220    1.000
    H46      H        0.93890    0.55630    0.13100    1.000
    H47      H        0.88470    0.36220    0.02690    1.000
    H48      H        0.75470    0.21010    0.04660    1.000
    H49      H        0.67510    0.24970    0.16420    1.000
    H50      H        0.07880    0.72910    0.44220    1.000
    H51      H        0.15760    0.76520    0.55060    1.000
    H52      H        0.11820    0.54550    0.44810    1.000
    H53      H        0.01710    0.52370    0.35830    1.000
    H54      H        0.01600    0.65460    0.63490    1.000
    H55      H        0.11660    0.62580    0.61980    1.000
    H56      H        0.40320    0.63840    0.13440    1.000
    H57      H        0.46830    0.74180    0.10980    1.000
    H58      H        0.41610    0.59940    0.94180    1.000
    H59      H        0.35350    0.49550    0.96690    1.000
    H60      H        0.46860    0.48080    0.11050    1.000
    H61      H        0.59980    0.57520    0.17000    1.000
    H62      H        0.74700    0.07680    0.63410    1.000
    H63      H        0.78180    0.08510    0.54450    1.000
    H64      H        0.54870    0.98070    0.61590    1.000
    H65      H        0.52920    0.85920    0.54030    1.000
    H66      H        0.64870    0.13860    0.48170    1.000
    H67      H        0.62170    0.15340    0.57890    1.000
    H68      H        0.65600    0.65250    0.79940    1.000
    H69      H        0.70800    0.56880    0.76200    1.000
    H70      H        0.76550    0.85990    0.80610    1.000
    H71      H        0.81080    0.82340    0.72020    1.000
    H72      H        0.89440    0.69530    0.70780    1.000
    H73      H        0.90620    0.64350    0.78510    1.000
    H74      H        0.04580    0.82980    0.91050    1.000
    H75      H        0.08730    0.79910    0.82120    1.000
    H76      H        0.94450    0.01390    0.83690    1.000
    H77      H        0.95390    0.97420    0.92240    1.000
    H78      H        0.21710    0.01460    0.87880    1.000
    H79      H        0.17710    0.02360    0.96900    1.000
    H80      H        0.60760    0.73100    0.61730    1.000
    C1       C        0.29400    0.54720    0.70500    1.000
    C2       C        0.12960    0.35480    0.72880    1.000
    C3       C        0.24120    0.57340    0.78080    1.000
    C4       C        0.16170    0.48060    0.79060    1.000
    C5       C        0.11450    0.50500    0.86200    1.000
    C6       C        0.14650    0.62170    0.92440    1.000
    C7       C        0.22470    0.71240    0.91300    1.000
    C8       C        0.27180    0.68870    0.84250    1.000
    C9       C        0.92210    0.26890    0.49390    1.000
    C10      C        0.96400    0.47770    0.57750    1.000
    C11      C        0.96560    0.39900    0.40990    1.000
    C12      C        0.52190    0.31150    0.86410    1.000
    C13      C        0.57290    0.45500    0.03420    1.000
    C14      C        0.46170    0.46930    0.89540    1.000
    C15      C        0.26750    0.96850    0.43510    1.000
    C16      C        0.47430    0.06930    0.45410    1.000
    C17      C        0.40260    0.90070    0.49010    1.000
    C18      C        0.29960    0.36410    0.24090    1.000
    C19      C        0.17430    0.15730    0.21000    1.000
    C20      C        0.09050    0.28770    0.22270    1.000
    C21      C        0.97050    0.18300    0.15830    1.000
    C22      C        0.05720    0.05000    0.14740    1.000
    C23      C        0.83920    0.97260    0.09430    1.000
    C24      C        0.70600    0.45280    0.29500    1.000
    C25      C        0.87040    0.64520    0.27120    1.000
    C26      C        0.75880    0.42660    0.21920    1.000
    C27      C        0.83830    0.51940    0.20940    1.000
    C28      C        0.88550    0.49500    0.13800    1.000
    C29      C        0.85350    0.37830    0.07560    1.000
    C30      C        0.77530    0.28760    0.08700    1.000
    C31      C        0.72820    0.31130    0.15750    1.000
    C32      C        0.07790    0.73110    0.50610    1.000
    C33      C        0.03600    0.52230    0.42250    1.000
    C34      C        0.03440    0.60100    0.59010    1.000
    C35      C        0.47810    0.68850    0.13590    1.000
    C36      C        0.42710    0.54500    0.96580    1.000
    C37      C        0.53830    0.53070    0.10460    1.000
    C38      C        0.73250    0.03150    0.56490    1.000
    C39      C        0.52570    0.93070    0.54590    1.000
    C40      C        0.59740    0.09930    0.50990    1.000
    C41      C        0.70040    0.63590    0.75910    1.000
    C42      C        0.82570    0.84270    0.79000    1.000
    C43      C        0.90950    0.71230    0.77730    1.000
    C44      C        0.02950    0.81700    0.84170    1.000
    C45      C        0.94280    0.95000    0.85260    1.000
    C46      C        0.16080    0.02740    0.90570    1.000
    N1       N        0.98980    0.39270    0.50700    1.000
    N2       N        0.48370    0.38700    0.93060    1.000
    N3       N        0.39150    0.00720    0.49470    1.000
    N4       N        0.17970    0.26040    0.19260    1.000
    N5       N        0.95990    0.07280    0.16480    1.000
    N6       N        0.01020    0.60730    0.49300    1.000
    N7       N        0.51630    0.61300    0.06940    1.000
    N8       N        0.60850    0.99280    0.50530    1.000
    N9       N        0.82030    0.73960    0.80740    1.000
    N10      N        0.04010    0.92720    0.83520    1.000
    O1       O        0.22990    0.50100    0.61450    1.000
    O2       O        0.39680    0.56340    0.73270    1.000
    O3       O        0.20200    0.33250    0.69400    1.000
    O4       O        0.03440    0.27440    0.71420    1.000
    O5       O        0.97650    0.09870    0.49700    1.000
    O6       O        0.10900    0.26400    0.46290    1.000
    O7       O        0.91420    0.09440    0.33200    1.000
    O8       O        0.43510    0.31170    0.68910    1.000
    O9       O        0.45470    0.13390    0.68830    1.000
    O10      O        0.30190    0.17380    0.74420    1.000
    O11      O        0.21170    0.13130    0.54140    1.000
    O12      O        0.30680    0.17960    0.43020    1.000
    O13      O        0.10170    0.00540    0.35550    1.000
    O14      O        0.30960    0.40310    0.42910    1.000
    O15      O        0.42850    0.31350    0.36190    1.000
    O16      O        0.48390    0.52690    0.39950    1.000
    O17      O        0.68650    0.74600    0.02550    1.000
    O18      O        0.87500    0.79200    0.99710    1.000
    O19      O        0.87770    0.83280    0.17050    1.000
    O20      O        0.77010    0.49900    0.38550    1.000
    O21      O        0.60320    0.43660    0.26730    1.000
    O22      O        0.79800    0.66750    0.30600    1.000
    O23      O        0.96560    0.72560    0.28580    1.000
    O24      O        0.02350    0.90130    0.50300    1.000
    O25      O        0.89100    0.73600    0.53710    1.000
    O26      O        0.08580    0.90560    0.66800    1.000
    O27      O        0.56490    0.68830    0.31090    1.000
    O28      O        0.54530    0.86610    0.31170    1.000
    O29      O        0.69810    0.82620    0.25580    1.000
    O30      O        0.78830    0.86870    0.45860    1.000
    O31      O        0.69320    0.82040    0.56980    1.000
    O32      O        0.89830    0.99460    0.64450    1.000
    O33      O        0.69040    0.59690    0.57090    1.000
    O34      O        0.57150    0.68650    0.63810    1.000
    O35      O        0.51610    0.47310    0.60050    1.000
    O36      O        0.31350    0.25400    0.97450    1.000
    O37      O        0.12500    0.20800    0.00290    1.000
    O38      O        0.12230    0.16720    0.82950    1.000
