# CIF file generated by openbabel 3.1.0, see https://openbabel.org
data_I
_chemical_name_common 'XEDLUN_clean'
_cell_length_a 10.137
_cell_length_b 15.745
_cell_length_c 15.988
_cell_angle_alpha 90
_cell_angle_beta 90
_cell_angle_gamma 107.76
_space_group_name_H-M_alt 'P 1'
_space_group_name_Hall 'P 1'
loop_
    _symmetry_equiv_pos_as_xyz
    x,y,z
loop_
    _atom_site_label
    _atom_site_type_symbol
    _atom_site_fract_x
    _atom_site_fract_y
    _atom_site_fract_z
    _atom_site_occupancy
    Ti1      Ti       0.86730    0.34200    0.67509    1.000
    Ti2      Ti       0.63160    0.15730    0.59892    1.000
    Ti3      Ti       0.13270    0.65800    0.17509    1.000
    Ti4      Ti       0.36840    0.84270    0.09892    1.000
    H1       H        0.95410    0.10870    0.62320    1.000
    H2       H        0.04770    0.01760    0.70310    1.000
    H3       H        0.05330    0.90220    0.77580    1.000
    H4       H        0.17010    0.82200    0.85950    1.000
    H5       H        0.21250    0.99240    0.04640    1.000
    H6       H        0.10110    0.07590    0.96720    1.000
    H7       H        0.91210    0.10010    0.91190    1.000
    H8       H        0.79850    0.18070    0.83700    1.000
    H9       H        0.07180    0.53440    0.75780    1.000
    H10      H        0.22620    0.67430    0.75450    1.000
    H11      H        0.39400    0.78550    0.74500    1.000
    H12      H        0.55320    0.91320    0.74040    1.000
    H13      H        0.43770    0.96860    0.51630    1.000
    H14      H        0.26660    0.83210    0.51400    1.000
    H15      H        0.09690    0.71900    0.53230    1.000
    H16      H        0.95160    0.57140    0.51840    1.000
    H17      H        0.27720    0.50160    0.22800    1.000
    H18      H        0.37950    0.41730    0.30610    1.000
    H19      H        0.42730    0.46870    0.57210    1.000
    H20      H        0.54800    0.39100    0.65020    1.000
    H21      H        0.69960    0.31720    0.44030    1.000
    H22      H        0.58640    0.40050    0.35550    1.000
    H23      H        0.43860    0.59510    0.49260    1.000
    H24      H        0.34150    0.68330    0.41770    1.000
    H25      H        0.04590    0.89130    0.12320    1.000
    H26      H        0.95230    0.98240    0.20310    1.000
    H27      H        0.94670    0.09780    0.27580    1.000
    H28      H        0.82990    0.17800    0.35950    1.000
    H29      H        0.78750    0.00760    0.54640    1.000
    H30      H        0.89890    0.92410    0.46720    1.000
    H31      H        0.08790    0.89990    0.41190    1.000
    H32      H        0.20150    0.81930    0.33700    1.000
    H33      H        0.92820    0.46560    0.25780    1.000
    H34      H        0.77380    0.32570    0.25450    1.000
    H35      H        0.60600    0.21450    0.24500    1.000
    H36      H        0.44680    0.08680    0.24040    1.000
    H37      H        0.56230    0.03140    0.01630    1.000
    H38      H        0.73340    0.16790    0.01400    1.000
    H39      H        0.90310    0.28100    0.03230    1.000
    H40      H        0.04840    0.42860    0.01840    1.000
    H41      H        0.72280    0.49840    0.72800    1.000
    H42      H        0.62050    0.58270    0.80610    1.000
    H43      H        0.57270    0.53130    0.07210    1.000
    H44      H        0.45200    0.60900    0.15020    1.000
    H45      H        0.30040    0.68280    0.94030    1.000
    H46      H        0.41360    0.59950    0.85550    1.000
    H47      H        0.56140    0.40490    0.99260    1.000
    H48      H        0.65850    0.31670    0.91770    1.000
    C1       C        0.86940    0.15480    0.72470    1.000
    C2       C        0.94410    0.10610    0.68230    1.000
    C3       C        0.00240    0.05420    0.73080    1.000
    C4       C        0.99870    0.05250    0.81680    1.000
    C5       C        0.07070    0.99880    0.86470    1.000
    C6       C        0.08640    0.92220    0.83010    1.000
    C7       C        0.15620    0.87450    0.88180    1.000
    C8       C        0.20140    0.89830    0.95670    1.000
    C9       C        0.18150    0.97430    0.99120    1.000
    C10      C        0.11530    0.02390    0.94380    1.000
    C11      C        0.92020    0.10120    0.85260    1.000
    C12      C        0.85380    0.15040    0.80920    1.000
    C13      C        0.98770    0.53680    0.63800    1.000
    C14      C        0.07850    0.57020    0.70930    1.000
    C15      C        0.17280    0.65300    0.70580    1.000
    C16      C        0.19580    0.70630    0.63870    1.000
    C17      C        0.30150    0.79230    0.63640    1.000
    C18      C        0.39660    0.82240    0.69760    1.000
    C19      C        0.49130    0.89920    0.69430    1.000
    C20      C        0.51510    0.96620    0.62990    1.000
    C21      C        0.42700    0.93250    0.56490    1.000
    C22      C        0.32250    0.85000    0.56240    1.000
    C23      C        0.09870    0.67730    0.57490    1.000
    C24      C        0.00300    0.59110    0.56820    1.000
    C25      C        0.29870    0.60300    0.31140    1.000
    C26      C        0.31290    0.52240    0.28170    1.000
    C27      C        0.37630    0.47290    0.32750    1.000
    C28      C        0.43850    0.50290    0.40740    1.000
    C29      C        0.50600    0.44900    0.45630    1.000
    C30      C        0.48650    0.44090    0.54480    1.000
    C31      C        0.55510    0.39180    0.59100    1.000
    C32      C        0.63390    0.34390    0.55220    1.000
    C33      C        0.64540    0.34900    0.46710    1.000
    C34      C        0.57950    0.40030    0.41480    1.000
    C35      C        0.41150    0.57790    0.43660    1.000
    C36      C        0.35010    0.63010    0.39370    1.000
    C37      C        0.13060    0.84520    0.22470    1.000
    C38      C        0.05590    0.89390    0.18230    1.000
    C39      C        0.99760    0.94580    0.23080    1.000
    C40      C        0.00130    0.94750    0.31680    1.000
    C41      C        0.92930    0.00120    0.36470    1.000
    C42      C        0.91360    0.07780    0.33010    1.000
    C43      C        0.84380    0.12550    0.38180    1.000
    C44      C        0.79860    0.10170    0.45670    1.000
    C45      C        0.81850    0.02570    0.49120    1.000
    C46      C        0.88470    0.97610    0.44380    1.000
    C47      C        0.07980    0.89880    0.35260    1.000
    C48      C        0.14620    0.84960    0.30920    1.000
    C49      C        0.01230    0.46320    0.13800    1.000
    C50      C        0.92150    0.42980    0.20930    1.000
    C51      C        0.82720    0.34700    0.20580    1.000
    C52      C        0.80420    0.29370    0.13870    1.000
    C53      C        0.69850    0.20770    0.13640    1.000
    C54      C        0.60340    0.17760    0.19760    1.000
    C55      C        0.50870    0.10080    0.19430    1.000
    C56      C        0.48490    0.03380    0.12990    1.000
    C57      C        0.57300    0.06750    0.06490    1.000
    C58      C        0.67750    0.15000    0.06240    1.000
    C59      C        0.90130    0.32270    0.07490    1.000
    C60      C        0.99700    0.40890    0.06820    1.000
    C61      C        0.70130    0.39700    0.81140    1.000
    C62      C        0.68710    0.47760    0.78170    1.000
    C63      C        0.62370    0.52710    0.82750    1.000
    C64      C        0.56150    0.49710    0.90740    1.000
    C65      C        0.49400    0.55100    0.95630    1.000
    C66      C        0.51350    0.55910    0.04480    1.000
    C67      C        0.44490    0.60820    0.09100    1.000
    C68      C        0.36610    0.65610    0.05220    1.000
    C69      C        0.35460    0.65100    0.96710    1.000
    C70      C        0.42050    0.59970    0.91480    1.000
    C71      C        0.58850    0.42210    0.93660    1.000
    C72      C        0.64990    0.36990    0.89370    1.000
    O1       O        0.80460    0.20500    0.67490    1.000
    O2       O        0.25330    0.84420    0.00600    1.000
    O3       O        0.89610    0.45920    0.63830    1.000
    O4       O        0.61090    0.04500    0.63220    1.000
    O5       O        0.24290    0.65640    0.26780    1.000
    O6       O        0.69390    0.29430    0.59620    1.000
    O7       O        0.19540    0.79500    0.17490    1.000
    O8       O        0.74670    0.15580    0.50600    1.000
    O9       O        0.10390    0.54080    0.13830    1.000
    O10      O        0.38910    0.95500    0.13220    1.000
    O11      O        0.75710    0.34360    0.76780    1.000
    O12      O        0.30610    0.70570    0.09620    1.000
