# CIF file generated by openbabel 3.1.0, see https://openbabel.org
data_I
_chemical_name_common 'TUGSUK_ion_b'
_cell_length_a 15.3762
_cell_length_b 25.9847
_cell_length_c 25.4431
_cell_angle_alpha 90
_cell_angle_beta 97.626
_cell_angle_gamma 90
_space_group_name_H-M_alt 'P 1'
_space_group_name_Hall 'P 1'
loop_
    _symmetry_equiv_pos_as_xyz
    x,y,z
loop_
    _atom_site_label
    _atom_site_type_symbol
    _atom_site_fract_x
    _atom_site_fract_y
    _atom_site_fract_z
    _atom_site_occupancy
    Cu1      Cu       0.64313    0.65820    0.18152    1.000
    Cu2      Cu       0.47123    0.73370    0.24020    1.000
    Cu3      Cu       0.29773    0.68768    0.79422    1.000
    S4       S        0.73677    0.52119    0.21812    1.000
    O5       O        0.65470    0.49990    0.19350    1.000
    O6       O        0.76510    0.48520    0.25990    1.000
    O7       O        0.80140    0.52280    0.17980    1.000
    O8       O        0.72510    0.57444    0.23710    1.000
    S9       S        0.39580    0.64720    0.04980    1.000
    O10      O        0.41360    0.62700    0.10440    1.000
    O11      O        0.47890    0.64580    0.02700    1.000
    O12      O        0.33280    0.61430    0.01850    1.000
    O13      O        0.36180    0.69850    0.05350    1.000
    S14      S        0.56181    0.84512    0.41075    1.000
    O15      O        0.56750    0.85240    0.35370    1.000
    O16      O        0.47410    0.86110    0.41960    1.000
    O17      O        0.58260    0.79450    0.41980    1.000
    O18      O        0.62280    0.87990    0.44120    1.000
    S19      S        0.98386    0.84220    0.19342    1.000
    O20      O        0.89200    0.85720    0.19000    1.000
    O21      O        0.99980    0.79437    0.21990    1.000
    O22      O        0.03830    0.88310    0.22270    1.000
    O23      O        0.01560    0.83300    0.13960    1.000
    N24      N        0.56360    0.72521    0.14120    1.000
    N25      N        0.49640    0.74703    0.16401    1.000
    N26      N        0.50380    0.78610    0.08942    1.000
    N27      N        0.44590    0.77649    0.81579    1.000
    N28      N        0.38150    0.74981    0.83671    1.000
    N29      N        0.44250    0.80369    0.89655    1.000
    N30      N        0.68040    0.70080    0.24611    1.000
    N31      N        0.61830    0.72746    0.27022    1.000
    N32      N        0.74920    0.74817    0.30882    1.000
    N33      N        0.17790    0.73638    0.33343    1.000
    N34      N        0.19010    0.78809    0.32228    1.000
    N35      N        0.06400    0.78152    0.35146    1.000
    N36      N        0.32820    0.73842    0.20783    1.000
    N37      N        0.26390    0.76468    0.22961    1.000
    N38      N        0.19990    0.70835    0.17416    1.000
    N39      N        0.77600    0.72192    0.14090    1.000
    N40      N        0.75550    0.67289    0.15643    1.000
    N41      N        0.88810    0.67007    0.13583    1.000
    N42      N        0.52820    0.30984    0.24914    1.000
    N43      N        0.59180    0.34035    0.23143    1.000
    N44      N        0.48630    0.38931    0.25149    1.000
    N45      N        0.47370    0.65771    0.23113    1.000
    N46      N        0.53960    0.63042    0.21169    1.000
    N47      N        0.45050    0.57582    0.24044    1.000
    C48      C        0.56730    0.74914    0.09670    1.000
    H49      H        0.60810    0.74190    0.07280    1.000
    C50      C        0.46200    0.78290    0.13230    1.000
    H51      H        0.41390    0.80400    0.13860    1.000
    C52      C        0.48160    0.80814    0.85280    1.000
    H53      H        0.52860    0.83100    0.84900    1.000
    C54      C        0.38040    0.76647    0.88500    1.000
    H55      H        0.34200    0.75440    0.90860    1.000
    C56      C        0.49020    0.82408    0.04460    1.000
    C57      C        0.47290    0.79381    0.99300    1.000
    H58      H        0.41950    0.77240    0.99280    1.000
    H59      H        0.52300    0.77080    0.98930    1.000
    C60      C        0.46030    0.83262    0.94700    1.000
    C61      C        0.37940    0.86710    0.95280    1.000
    H62      H        0.36880    0.89140    0.92270    1.000
    H63      H        0.32640    0.84560    0.95320    1.000
    C64      C        0.39900    0.89660    0.00470    1.000
    H65      H        0.34820    0.91950    0.00880    1.000
    C66      C        0.41160    0.85810    0.05180    1.000
    H67      H        0.42260    0.87690    0.08590    1.000
    H68      H        0.35830    0.83680    0.05200    1.000
    C69      C        0.57280    0.85670    0.04510    1.000
    H70      H        0.62360    0.83430    0.04130    1.000
    H71      H        0.58500    0.87540    0.07920    1.000
    C72      C        0.55890    0.89510    0.99920    1.000
    H73      H        0.61280    0.91670    0.99940    1.000
    C74      C        0.54210    0.86520    0.94710    1.000
    H75      H        0.53430    0.88940    0.91690    1.000
    H76      H        0.59300    0.84280    0.94330    1.000
    C77      C        0.48110    0.92940    0.00520    1.000
    H78      H        0.47260    0.95460    0.97580    1.000
    H79      H        0.49220    0.94870    0.03900    1.000
    C80      C        0.75850    0.71410    0.26990    1.000
    H81      H        0.81280    0.70170    0.26100    1.000
    C82      C        0.66100    0.75480    0.30740    1.000
    H83      H        0.63450    0.77660    0.33060    1.000
    C84      C        0.10160    0.73440    0.35070    1.000
    H85      H        0.07570    0.70370    0.36150    1.000
    C86      C        0.12150    0.81375    0.33290    1.000
    H87      H        0.11340    0.84980    0.32830    1.000
    C88      C        0.81720    0.77580    0.34450    1.000
    C89      C        0.90770    0.76354    0.32900    1.000
    H90      H        0.91020    0.77380    0.29170    1.000
    H91      H        0.91940    0.72620    0.33240    1.000
    C92      C        0.97580    0.79355    0.36620    1.000
    C93      C        0.95930    0.85150    0.36010    1.000
    H94      H        0.00450    0.87080    0.38370    1.000
    H95      H        0.96240    0.86220    0.32310    1.000
    C96      C        0.86810    0.86300    0.37510    1.000
    H97      H        0.85640    0.90080    0.37120    1.000
    C98      C        0.79990    0.83406    0.33800    1.000
    H99      H        0.80310    0.84450    0.30090    1.000
    H100     H        0.74040    0.84230    0.34650    1.000
    C101     C        0.81270    0.75990    0.40170    1.000
    H102     H        0.75360    0.76720    0.41120    1.000
    H103     H        0.82380    0.72250    0.40590    1.000
    C104     C        0.88140    0.78980    0.43810    1.000
    H105     H        0.87870    0.77910    0.47560    1.000
    C106     C        0.97260    0.77740    0.42370    1.000
    H107     H        0.01780    0.79630    0.44750    1.000
    H108     H        0.98440    0.74010    0.42780    1.000
    C109     C        0.86390    0.84740    0.43280    1.000
    H110     H        0.90850    0.86660    0.45680    1.000
    H111     H        0.80530    0.85550    0.44270    1.000
    C112     C        0.28790    0.70470    0.17460    1.000
    H113     H        0.31630    0.68110    0.15390    1.000
    C114     C        0.18790    0.74630    0.20880    1.000
    H115     H        0.13260    0.75790    0.21690    1.000
    C116     C        0.85580    0.71880    0.12880    1.000
    H117     H        0.88720    0.74690    0.11670    1.000
    C118     C        0.82360    0.64220    0.15290    1.000
    H119     H        0.82620    0.60650    0.16100    1.000
    C120     C        0.13470    0.67250    0.14530    1.000
    C121     C        0.14210    0.67460    0.08620    1.000
    H122     H        0.20190    0.66460    0.08000    1.000
    H123     H        0.13070    0.71000    0.07280    1.000
    C124     C        0.07440    0.63740    0.05710    1.000
    H125     H        0.07860    0.63830    0.01830    1.000
    C126     C        0.98270    0.65410    0.06670    1.000
    H127     H        0.93840    0.63080    0.04750    1.000
    H128     H        0.97090    0.68950    0.05320    1.000
    C129     C        0.97600    0.65230    0.12630    1.000
    C130     C        0.04310    0.68937    0.15570    1.000
    H131     H        0.03130    0.72500    0.14280    1.000
    H132     H        0.03920    0.68850    0.19420    1.000
    C133     C        0.15350    0.61850    0.16650    1.000
    H134     H        0.15010    0.61770    0.20510    1.000
    H135     H        0.21320    0.60790    0.16070    1.000
    C136     C        0.08540    0.58160    0.13760    1.000
    H137     H        0.09760    0.54590    0.15130    1.000
    C138     C        0.99370    0.59745    0.14730    1.000
    H139     H        0.98900    0.59620    0.18570    1.000
    H140     H        0.94980    0.57350    0.12880    1.000
    C141     C        0.09240    0.58290    0.07800    1.000
    H142     H        0.15190    0.57200    0.07180    1.000
    H143     H        0.04930    0.55880    0.05910    1.000
    C144     C        0.46530    0.34026    0.26070    1.000
    H145     H        0.41320    0.32930    0.27360    1.000
    C146     C        0.56500    0.38789    0.23330    1.000
    H147     H        0.59610    0.41710    0.22340    1.000
    C148     C        0.42020    0.62395    0.24790    1.000
    H149     H        0.36850    0.63200    0.26300    1.000
    C150     C        0.52370    0.58173    0.21760    1.000
    H151     H        0.55880    0.55440    0.20730    1.000
    C152     C        0.42920    0.43333    0.26280    1.000
    C153     C        0.41050    0.52747    0.25720    1.000
    C154     C        0.47000    0.48287    0.24510    1.000
    H155     H        0.47440    0.48150    0.20660    1.000
    H156     H        0.52970    0.48750    0.26450    1.000
    C157     C        0.31890    0.52121    0.22620    1.000
    H158     H        0.32260    0.52080    0.18770    1.000
    H159     H        0.28110    0.55040    0.23390    1.000
    C160     C        0.27980    0.47063    0.24280    1.000
    H161     H        0.22000    0.46590    0.22250    1.000
    C162     C        0.33890    0.42552    0.23120    1.000
    H163     H        0.31330    0.39260    0.24150    1.000
    H164     H        0.34380    0.42420    0.19280    1.000
    C165     C        0.42300    0.43468    0.32140    1.000
    H166     H        0.48230    0.43870    0.34150    1.000
    H167     H        0.39770    0.40200    0.33240    1.000
    C168     C        0.36480    0.47985    0.33340    1.000
    H169     H        0.36050    0.48100    0.37220    1.000
    C170     C        0.40410    0.53023    0.31620    1.000
    H171     H        0.36650    0.55960    0.32370    1.000
    H172     H        0.46320    0.53550    0.33630    1.000
    C173     C        0.27260    0.47220    0.30210    1.000
    H174     H        0.24690    0.43960    0.31300    1.000
    H175     H        0.23360    0.50080    0.30970    1.000
    O176     O        0.60830    0.61196    0.12002    1.000
    H177     H        0.63810    0.61880    0.09470    1.000
    H178     H        0.55410    0.61600    0.10810    1.000
    O179     O        0.32380    0.63789    0.85358    1.000
    H180     H        0.37210    0.64520    0.87310    1.000
    H181     H        0.28300    0.63760    0.87360    1.000
    Cu218    Cu       0.35687    0.15820    0.31848    1.000
    Cu219    Cu       0.52877    0.23370    0.25980    1.000
    Cu220    Cu       0.70227    0.18768    0.70578    1.000
    S221     S        0.26323    0.02119    0.28188    1.000
    O222     O        0.34530    0.99990    0.30650    1.000
    O223     O        0.23490    0.98520    0.24010    1.000
    O224     O        0.19860    0.02280    0.32020    1.000
    O225     O        0.27490    0.07444    0.26290    1.000
    S226     S        0.60420    0.14720    0.45020    1.000
    O227     O        0.58640    0.12700    0.39560    1.000
    O228     O        0.52110    0.14580    0.47300    1.000
    O229     O        0.66720    0.11430    0.48150    1.000
    O230     O        0.63820    0.19850    0.44650    1.000
    S231     S        0.43819    0.34512    0.08925    1.000
    O232     O        0.43250    0.35240    0.14630    1.000
    O233     O        0.52590    0.36110    0.08040    1.000
    O234     O        0.41740    0.29450    0.08020    1.000
    O235     O        0.37720    0.37990    0.05880    1.000
    S236     S        0.01614    0.34220    0.30658    1.000
    O237     O        0.10800    0.35720    0.31000    1.000
    O238     O        0.00020    0.29437    0.28010    1.000
    O239     O        0.96170    0.38310    0.27730    1.000
    O240     O        0.98440    0.33300    0.36040    1.000
    N241     N        0.43640    0.22521    0.35880    1.000
    N242     N        0.50360    0.24703    0.33599    1.000
    N243     N        0.49620    0.28610    0.41058    1.000
    N244     N        0.55410    0.27649    0.68421    1.000
    N245     N        0.61850    0.24981    0.66329    1.000
    N246     N        0.55750    0.30369    0.60345    1.000
    N247     N        0.31960    0.20080    0.25389    1.000
    N248     N        0.38170    0.22746    0.22978    1.000
    N249     N        0.25080    0.24817    0.19118    1.000
    N250     N        0.82210    0.23638    0.16657    1.000
    N251     N        0.80990    0.28809    0.17772    1.000
    N252     N        0.93600    0.28152    0.14854    1.000
    N253     N        0.67180    0.23842    0.29217    1.000
    N254     N        0.73610    0.26468    0.27039    1.000
    N255     N        0.80010    0.20835    0.32584    1.000
    N256     N        0.22400    0.22192    0.35910    1.000
    N257     N        0.24450    0.17289    0.34357    1.000
    N258     N        0.11190    0.17007    0.36417    1.000
    N259     N        0.47180    0.80984    0.25086    1.000
    N260     N        0.40820    0.84035    0.26857    1.000
    N261     N        0.51370    0.88931    0.24851    1.000
    N262     N        0.52630    0.15771    0.26887    1.000
    N263     N        0.46040    0.13042    0.28831    1.000
    N264     N        0.54950    0.07582    0.25956    1.000
    C265     C        0.43270    0.24914    0.40330    1.000
    H266     H        0.39190    0.24190    0.42720    1.000
    C267     C        0.53800    0.28290    0.36770    1.000
    H268     H        0.58610    0.30400    0.36140    1.000
    C269     C        0.51840    0.30814    0.64720    1.000
    H270     H        0.47140    0.33100    0.65100    1.000
    C271     C        0.61960    0.26647    0.61500    1.000
    H272     H        0.65800    0.25440    0.59140    1.000
    C273     C        0.50980    0.32408    0.45540    1.000
    C274     C        0.52710    0.29381    0.50700    1.000
    H275     H        0.58050    0.27240    0.50720    1.000
    H276     H        0.47700    0.27080    0.51070    1.000
    C277     C        0.53970    0.33262    0.55300    1.000
    C278     C        0.62060    0.36710    0.54720    1.000
    H279     H        0.63120    0.39140    0.57730    1.000
    H280     H        0.67360    0.34560    0.54680    1.000
    C281     C        0.60100    0.39660    0.49530    1.000
    H282     H        0.65180    0.41950    0.49120    1.000
    C283     C        0.58840    0.35810    0.44820    1.000
    H284     H        0.57740    0.37690    0.41410    1.000
    H285     H        0.64170    0.33680    0.44800    1.000
    C286     C        0.42720    0.35670    0.45490    1.000
    H287     H        0.37640    0.33430    0.45870    1.000
    H288     H        0.41500    0.37540    0.42080    1.000
    C289     C        0.44110    0.39510    0.50080    1.000
    H290     H        0.38720    0.41670    0.50060    1.000
    C291     C        0.45790    0.36520    0.55290    1.000
    H292     H        0.46570    0.38940    0.58310    1.000
    H293     H        0.40700    0.34280    0.55670    1.000
    C294     C        0.51890    0.42940    0.49480    1.000
    H295     H        0.52740    0.45460    0.52420    1.000
    H296     H        0.50780    0.44870    0.46100    1.000
    C297     C        0.24150    0.21410    0.23010    1.000
    H298     H        0.18720    0.20170    0.23900    1.000
    C299     C        0.33900    0.25480    0.19260    1.000
    H300     H        0.36550    0.27660    0.16940    1.000
    C301     C        0.89840    0.23440    0.14930    1.000
    H302     H        0.92430    0.20370    0.13850    1.000
    C303     C        0.87850    0.31375    0.16710    1.000
    H304     H        0.88660    0.34980    0.17170    1.000
    C305     C        0.18280    0.27580    0.15550    1.000
    C306     C        0.09230    0.26354    0.17100    1.000
    H307     H        0.08980    0.27380    0.20830    1.000
    H308     H        0.08060    0.22620    0.16760    1.000
    C309     C        0.02420    0.29355    0.13380    1.000
    C310     C        0.04070    0.35150    0.13990    1.000
    H311     H        0.99550    0.37080    0.11630    1.000
    H312     H        0.03760    0.36220    0.17690    1.000
    C313     C        0.13190    0.36300    0.12490    1.000
    H314     H        0.14360    0.40080    0.12880    1.000
    C315     C        0.20010    0.33406    0.16200    1.000
    H316     H        0.19690    0.34450    0.19910    1.000
    H317     H        0.25960    0.34230    0.15350    1.000
    C318     C        0.18730    0.25990    0.09830    1.000
    H319     H        0.24640    0.26720    0.08880    1.000
    H320     H        0.17620    0.22250    0.09410    1.000
    C321     C        0.11860    0.28980    0.06190    1.000
    H322     H        0.12130    0.27910    0.02440    1.000
    C323     C        0.02740    0.27740    0.07630    1.000
    H324     H        0.98220    0.29630    0.05250    1.000
    H325     H        0.01560    0.24010    0.07220    1.000
    C326     C        0.13610    0.34740    0.06720    1.000
    H327     H        0.09150    0.36660    0.04320    1.000
    H328     H        0.19470    0.35550    0.05730    1.000
    C329     C        0.71210    0.20470    0.32540    1.000
    H330     H        0.68370    0.18110    0.34610    1.000
    C331     C        0.81210    0.24630    0.29120    1.000
    H332     H        0.86740    0.25790    0.28310    1.000
    C333     C        0.14420    0.21880    0.37120    1.000
    H334     H        0.11280    0.24690    0.38330    1.000
    C335     C        0.17640    0.14220    0.34710    1.000
    H336     H        0.17380    0.10650    0.33900    1.000
    C337     C        0.86530    0.17250    0.35470    1.000
    C338     C        0.85790    0.17460    0.41380    1.000
    H339     H        0.79810    0.16460    0.42000    1.000
    H340     H        0.86930    0.21000    0.42720    1.000
    C341     C        0.92560    0.13740    0.44290    1.000
    H342     H        0.92140    0.13830    0.48170    1.000
    C343     C        0.01730    0.15410    0.43330    1.000
    H344     H        0.06160    0.13080    0.45250    1.000
    H345     H        0.02910    0.18950    0.44680    1.000
    C346     C        0.02400    0.15230    0.37370    1.000
    C347     C        0.95690    0.18937    0.34430    1.000
    H348     H        0.96870    0.22500    0.35720    1.000
    H349     H        0.96080    0.18850    0.30580    1.000
    C350     C        0.84650    0.11850    0.33350    1.000
    H351     H        0.84990    0.11770    0.29490    1.000
    H352     H        0.78680    0.10790    0.33930    1.000
    C353     C        0.91460    0.08160    0.36240    1.000
    H354     H        0.90240    0.04590    0.34870    1.000
    C355     C        0.00630    0.09745    0.35270    1.000
    H356     H        0.01100    0.09620    0.31430    1.000
    H357     H        0.05020    0.07350    0.37120    1.000
    C358     C        0.90760    0.08290    0.42200    1.000
    H359     H        0.84810    0.07200    0.42820    1.000
    H360     H        0.95070    0.05880    0.44090    1.000
    C361     C        0.53470    0.84026    0.23930    1.000
    H362     H        0.58680    0.82930    0.22640    1.000
    C363     C        0.43500    0.88789    0.26670    1.000
    H364     H        0.40390    0.91710    0.27660    1.000
    C365     C        0.57980    0.12395    0.25210    1.000
    H366     H        0.63150    0.13200    0.23700    1.000
    C367     C        0.47630    0.08173    0.28240    1.000
    H368     H        0.44120    0.05440    0.29270    1.000
    C369     C        0.57080    0.93333    0.23720    1.000
    C370     C        0.58950    0.02747    0.24280    1.000
    C371     C        0.53000    0.98287    0.25490    1.000
    H372     H        0.52560    0.98150    0.29340    1.000
    H373     H        0.47030    0.98750    0.23550    1.000
    C374     C        0.68110    0.02121    0.27380    1.000
    H375     H        0.67740    0.02080    0.31230    1.000
    H376     H        0.71890    0.05040    0.26610    1.000
    C377     C        0.72020    0.97063    0.25720    1.000
    H378     H        0.78000    0.96590    0.27750    1.000
    C379     C        0.66110    0.92552    0.26880    1.000
    H380     H        0.68670    0.89260    0.25850    1.000
    H381     H        0.65620    0.92420    0.30720    1.000
    C382     C        0.57700    0.93468    0.17860    1.000
    H383     H        0.51770    0.93870    0.15850    1.000
    H384     H        0.60230    0.90200    0.16760    1.000
    C385     C        0.63520    0.97985    0.16660    1.000
    H386     H        0.63950    0.98100    0.12780    1.000
    C387     C        0.59590    0.03023    0.18380    1.000
    H388     H        0.63350    0.05960    0.17630    1.000
    H389     H        0.53680    0.03550    0.16370    1.000
    C390     C        0.72740    0.97220    0.19790    1.000
    H391     H        0.75310    0.93960    0.18700    1.000
    H392     H        0.76640    0.00080    0.19030    1.000
    O393     O        0.39170    0.11196    0.37998    1.000
    H394     H        0.36190    0.11880    0.40530    1.000
    H395     H        0.44590    0.11600    0.39190    1.000
    O396     O        0.67620    0.13789    0.64642    1.000
    H397     H        0.62790    0.14520    0.62690    1.000
    H398     H        0.71700    0.13760    0.62640    1.000
    Cu435    Cu       0.35687    0.34180    0.81848    1.000
    Cu436    Cu       0.52877    0.26630    0.75980    1.000
    Cu437    Cu       0.70227    0.31232    0.20578    1.000
    S438     S        0.26323    0.47881    0.78188    1.000
    O439     O        0.34530    0.50010    0.80650    1.000
    O440     O        0.23490    0.51480    0.74010    1.000
    O441     O        0.19860    0.47720    0.82020    1.000
    O442     O        0.27490    0.42556    0.76290    1.000
    S443     S        0.60420    0.35280    0.95020    1.000
    O444     O        0.58640    0.37300    0.89560    1.000
    O445     O        0.52110    0.35420    0.97300    1.000
    O446     O        0.66720    0.38570    0.98150    1.000
    O447     O        0.63820    0.30150    0.94650    1.000
    S448     S        0.43819    0.15488    0.58925    1.000
    O449     O        0.43250    0.14760    0.64630    1.000
    O450     O        0.52590    0.13890    0.58040    1.000
    O451     O        0.41740    0.20550    0.58020    1.000
    O452     O        0.37720    0.12010    0.55880    1.000
    S453     S        0.01614    0.15780    0.80658    1.000
    O454     O        0.10800    0.14280    0.81000    1.000
    O455     O        0.00020    0.20563    0.78010    1.000
    O456     O        0.96170    0.11690    0.77730    1.000
    O457     O        0.98440    0.16700    0.86040    1.000
    N458     N        0.43640    0.27479    0.85880    1.000
    N459     N        0.50360    0.25297    0.83599    1.000
    N460     N        0.49620    0.21390    0.91058    1.000
    N461     N        0.55410    0.22351    0.18421    1.000
    N462     N        0.61850    0.25019    0.16329    1.000
    N463     N        0.55750    0.19631    0.10345    1.000
    N464     N        0.31960    0.29920    0.75389    1.000
    N465     N        0.38170    0.27254    0.72978    1.000
    N466     N        0.25080    0.25183    0.69118    1.000
    N467     N        0.82210    0.26362    0.66657    1.000
    N468     N        0.80990    0.21191    0.67772    1.000
    N469     N        0.93600    0.21848    0.64854    1.000
    N470     N        0.67180    0.26158    0.79217    1.000
    N471     N        0.73610    0.23532    0.77039    1.000
    N472     N        0.80010    0.29165    0.82584    1.000
    N473     N        0.22400    0.27808    0.85910    1.000
    N474     N        0.24450    0.32711    0.84357    1.000
    N475     N        0.11190    0.32993    0.86417    1.000
    N476     N        0.47180    0.69016    0.75086    1.000
    N477     N        0.40820    0.65965    0.76857    1.000
    N478     N        0.51370    0.61069    0.74851    1.000
    N479     N        0.52630    0.34229    0.76887    1.000
    N480     N        0.46040    0.36958    0.78831    1.000
    N481     N        0.54950    0.42418    0.75956    1.000
    C482     C        0.43270    0.25086    0.90330    1.000
    H483     H        0.39190    0.25810    0.92720    1.000
    C484     C        0.53800    0.21710    0.86770    1.000
    H485     H        0.58610    0.19600    0.86140    1.000
    C486     C        0.51840    0.19186    0.14720    1.000
    H487     H        0.47140    0.16900    0.15100    1.000
    C488     C        0.61960    0.23353    0.11500    1.000
    H489     H        0.65800    0.24560    0.09140    1.000
    C490     C        0.50980    0.17592    0.95540    1.000
    C491     C        0.52710    0.20619    0.00700    1.000
    H492     H        0.58050    0.22760    0.00720    1.000
    H493     H        0.47700    0.22920    0.01070    1.000
    C494     C        0.53970    0.16738    0.05300    1.000
    C495     C        0.62060    0.13290    0.04720    1.000
    H496     H        0.63120    0.10860    0.07730    1.000
    H497     H        0.67360    0.15440    0.04680    1.000
    C498     C        0.60100    0.10340    0.99530    1.000
    H499     H        0.65180    0.08050    0.99120    1.000
    C500     C        0.58840    0.14190    0.94820    1.000
    H501     H        0.57740    0.12310    0.91410    1.000
    H502     H        0.64170    0.16320    0.94800    1.000
    C503     C        0.42720    0.14330    0.95490    1.000
    H504     H        0.37640    0.16570    0.95870    1.000
    H505     H        0.41500    0.12460    0.92080    1.000
    C506     C        0.44110    0.10490    0.00080    1.000
    H507     H        0.38720    0.08330    0.00060    1.000
    C508     C        0.45790    0.13480    0.05290    1.000
    H509     H        0.46570    0.11060    0.08310    1.000
    H510     H        0.40700    0.15720    0.05670    1.000
    C511     C        0.51890    0.07060    0.99480    1.000
    H512     H        0.52740    0.04540    0.02420    1.000
    H513     H        0.50780    0.05130    0.96100    1.000
    C514     C        0.24150    0.28590    0.73010    1.000
    H515     H        0.18720    0.29830    0.73900    1.000
    C516     C        0.33900    0.24520    0.69260    1.000
    H517     H        0.36550    0.22340    0.66940    1.000
    C518     C        0.89840    0.26560    0.64930    1.000
    H519     H        0.92430    0.29630    0.63850    1.000
    C520     C        0.87850    0.18625    0.66710    1.000
    H521     H        0.88660    0.15020    0.67170    1.000
    C522     C        0.18280    0.22420    0.65550    1.000
    C523     C        0.09230    0.23646    0.67100    1.000
    H524     H        0.08980    0.22620    0.70830    1.000
    H525     H        0.08060    0.27380    0.66760    1.000
    C526     C        0.02420    0.20645    0.63380    1.000
    C527     C        0.04070    0.14850    0.63990    1.000
    H528     H        0.99550    0.12920    0.61630    1.000
    H529     H        0.03760    0.13780    0.67690    1.000
    C530     C        0.13190    0.13700    0.62490    1.000
    H531     H        0.14360    0.09920    0.62880    1.000
    C532     C        0.20010    0.16594    0.66200    1.000
    H533     H        0.19690    0.15550    0.69910    1.000
    H534     H        0.25960    0.15770    0.65350    1.000
    C535     C        0.18730    0.24010    0.59830    1.000
    H536     H        0.24640    0.23280    0.58880    1.000
    H537     H        0.17620    0.27750    0.59410    1.000
    C538     C        0.11860    0.21020    0.56190    1.000
    H539     H        0.12130    0.22090    0.52440    1.000
    C540     C        0.02740    0.22260    0.57630    1.000
    H541     H        0.98220    0.20370    0.55250    1.000
    H542     H        0.01560    0.25990    0.57220    1.000
    C543     C        0.13610    0.15260    0.56720    1.000
    H544     H        0.09150    0.13340    0.54320    1.000
    H545     H        0.19470    0.14450    0.55730    1.000
    C546     C        0.71210    0.29530    0.82540    1.000
    H547     H        0.68370    0.31890    0.84610    1.000
    C548     C        0.81210    0.25370    0.79120    1.000
    H549     H        0.86740    0.24210    0.78310    1.000
    C550     C        0.14420    0.28120    0.87120    1.000
    H551     H        0.11280    0.25310    0.88330    1.000
    C552     C        0.17640    0.35780    0.84710    1.000
    H553     H        0.17380    0.39350    0.83900    1.000
    C554     C        0.86530    0.32750    0.85470    1.000
    C555     C        0.85790    0.32540    0.91380    1.000
    H556     H        0.79810    0.33540    0.92000    1.000
    H557     H        0.86930    0.29000    0.92720    1.000
    C558     C        0.92560    0.36260    0.94290    1.000
    H559     H        0.92140    0.36170    0.98170    1.000
    C560     C        0.01730    0.34590    0.93330    1.000
    H561     H        0.06160    0.36920    0.95250    1.000
    H562     H        0.02910    0.31050    0.94680    1.000
    C563     C        0.02400    0.34770    0.87370    1.000
    C564     C        0.95690    0.31063    0.84430    1.000
    H565     H        0.96870    0.27500    0.85720    1.000
    H566     H        0.96080    0.31150    0.80580    1.000
    C567     C        0.84650    0.38150    0.83350    1.000
    H568     H        0.84990    0.38230    0.79490    1.000
    H569     H        0.78680    0.39210    0.83930    1.000
    C570     C        0.91460    0.41840    0.86240    1.000
    H571     H        0.90240    0.45410    0.84870    1.000
    C572     C        0.00630    0.40255    0.85270    1.000
    H573     H        0.01100    0.40380    0.81430    1.000
    H574     H        0.05020    0.42650    0.87120    1.000
    C575     C        0.90760    0.41710    0.92200    1.000
    H576     H        0.84810    0.42800    0.92820    1.000
    H577     H        0.95070    0.44120    0.94090    1.000
    C578     C        0.53470    0.65974    0.73930    1.000
    H579     H        0.58680    0.67070    0.72640    1.000
    C580     C        0.43500    0.61211    0.76670    1.000
    H581     H        0.40390    0.58290    0.77660    1.000
    C582     C        0.57980    0.37605    0.75210    1.000
    H583     H        0.63150    0.36800    0.73700    1.000
    C584     C        0.47630    0.41827    0.78240    1.000
    H585     H        0.44120    0.44560    0.79270    1.000
    C586     C        0.57080    0.56667    0.73720    1.000
    C587     C        0.58950    0.47253    0.74280    1.000
    C588     C        0.53000    0.51713    0.75490    1.000
    H589     H        0.52560    0.51850    0.79340    1.000
    H590     H        0.47030    0.51250    0.73550    1.000
    C591     C        0.68110    0.47879    0.77380    1.000
    H592     H        0.67740    0.47920    0.81230    1.000
    H593     H        0.71890    0.44960    0.76610    1.000
    C594     C        0.72020    0.52937    0.75720    1.000
    H595     H        0.78000    0.53410    0.77750    1.000
    C596     C        0.66110    0.57448    0.76880    1.000
    H597     H        0.68670    0.60740    0.75850    1.000
    H598     H        0.65620    0.57580    0.80720    1.000
    C599     C        0.57700    0.56532    0.67860    1.000
    H600     H        0.51770    0.56130    0.65850    1.000
    H601     H        0.60230    0.59800    0.66760    1.000
    C602     C        0.63520    0.52015    0.66660    1.000
    H603     H        0.63950    0.51900    0.62780    1.000
    C604     C        0.59590    0.46977    0.68380    1.000
    H605     H        0.63350    0.44040    0.67630    1.000
    H606     H        0.53680    0.46450    0.66370    1.000
    C607     C        0.72740    0.52780    0.69790    1.000
    H608     H        0.75310    0.56040    0.68700    1.000
    H609     H        0.76640    0.49920    0.69030    1.000
    O610     O        0.39170    0.38804    0.87998    1.000
    H611     H        0.36190    0.38120    0.90530    1.000
    H612     H        0.44590    0.38400    0.89190    1.000
    O613     O        0.67620    0.36211    0.14642    1.000
    H614     H        0.62790    0.35480    0.12690    1.000
    H615     H        0.71700    0.36240    0.12640    1.000
    Cu652    Cu       0.64313    0.84180    0.68152    1.000
    Cu653    Cu       0.47123    0.76630    0.74020    1.000
    Cu654    Cu       0.29773    0.81232    0.29422    1.000
    S655     S        0.73677    0.97881    0.71812    1.000
    O656     O        0.65470    0.00010    0.69350    1.000
    O657     O        0.76510    0.01480    0.75990    1.000
    O658     O        0.80140    0.97720    0.67980    1.000
    O659     O        0.72510    0.92556    0.73710    1.000
    S660     S        0.39580    0.85280    0.54980    1.000
    O661     O        0.41360    0.87300    0.60440    1.000
    O662     O        0.47890    0.85420    0.52700    1.000
    O663     O        0.33280    0.88570    0.51850    1.000
    O664     O        0.36180    0.80150    0.55350    1.000
    S665     S        0.56181    0.65488    0.91075    1.000
    O666     O        0.56750    0.64760    0.85370    1.000
    O667     O        0.47410    0.63890    0.91960    1.000
    O668     O        0.58260    0.70550    0.91980    1.000
    O669     O        0.62280    0.62010    0.94120    1.000
    S670     S        0.98386    0.65780    0.69342    1.000
    O671     O        0.89200    0.64280    0.69000    1.000
    O672     O        0.99980    0.70563    0.71990    1.000
    O673     O        0.03830    0.61690    0.72270    1.000
    O674     O        0.01560    0.66700    0.63960    1.000
    N675     N        0.56360    0.77479    0.64120    1.000
    N676     N        0.49640    0.75297    0.66401    1.000
    N677     N        0.50380    0.71390    0.58942    1.000
    N678     N        0.44590    0.72351    0.31579    1.000
    N679     N        0.38150    0.75019    0.33671    1.000
    N680     N        0.44250    0.69631    0.39655    1.000
    N681     N        0.68040    0.79920    0.74611    1.000
    N682     N        0.61830    0.77254    0.77022    1.000
    N683     N        0.74920    0.75183    0.80882    1.000
    N684     N        0.17790    0.76362    0.83343    1.000
    N685     N        0.19010    0.71191    0.82228    1.000
    N686     N        0.06400    0.71848    0.85146    1.000
    N687     N        0.32820    0.76158    0.70783    1.000
    N688     N        0.26390    0.73532    0.72961    1.000
    N689     N        0.19990    0.79165    0.67416    1.000
    N690     N        0.77600    0.77808    0.64090    1.000
    N691     N        0.75550    0.82711    0.65643    1.000
    N692     N        0.88810    0.82993    0.63583    1.000
    N693     N        0.52820    0.19016    0.74914    1.000
    N694     N        0.59180    0.15965    0.73143    1.000
    N695     N        0.48630    0.11069    0.75149    1.000
    N696     N        0.47370    0.84229    0.73113    1.000
    N697     N        0.53960    0.86958    0.71169    1.000
    N698     N        0.45050    0.92418    0.74044    1.000
    C699     C        0.56730    0.75086    0.59670    1.000
    H700     H        0.60810    0.75810    0.57280    1.000
    C701     C        0.46200    0.71710    0.63230    1.000
    H702     H        0.41390    0.69600    0.63860    1.000
    C703     C        0.48160    0.69186    0.35280    1.000
    H704     H        0.52860    0.66900    0.34900    1.000
    C705     C        0.38040    0.73353    0.38500    1.000
    H706     H        0.34200    0.74560    0.40860    1.000
    C707     C        0.49020    0.67592    0.54460    1.000
    C708     C        0.47290    0.70619    0.49300    1.000
    H709     H        0.41950    0.72760    0.49280    1.000
    H710     H        0.52300    0.72920    0.48930    1.000
    C711     C        0.46030    0.66738    0.44700    1.000
    C712     C        0.37940    0.63290    0.45280    1.000
    H713     H        0.36880    0.60860    0.42270    1.000
    H714     H        0.32640    0.65440    0.45320    1.000
    C715     C        0.39900    0.60340    0.50470    1.000
    H716     H        0.34820    0.58050    0.50880    1.000
    C717     C        0.41160    0.64190    0.55180    1.000
    H718     H        0.42260    0.62310    0.58590    1.000
    H719     H        0.35830    0.66320    0.55200    1.000
    C720     C        0.57280    0.64330    0.54510    1.000
    H721     H        0.62360    0.66570    0.54130    1.000
    H722     H        0.58500    0.62460    0.57920    1.000
    C723     C        0.55890    0.60490    0.49920    1.000
    H724     H        0.61280    0.58330    0.49940    1.000
    C725     C        0.54210    0.63480    0.44710    1.000
    H726     H        0.53430    0.61060    0.41690    1.000
    H727     H        0.59300    0.65720    0.44330    1.000
    C728     C        0.48110    0.57060    0.50520    1.000
    H729     H        0.47260    0.54540    0.47580    1.000
    H730     H        0.49220    0.55130    0.53900    1.000
    C731     C        0.75850    0.78590    0.76990    1.000
    H732     H        0.81280    0.79830    0.76100    1.000
    C733     C        0.66100    0.74520    0.80740    1.000
    H734     H        0.63450    0.72340    0.83060    1.000
    C735     C        0.10160    0.76560    0.85070    1.000
    H736     H        0.07570    0.79630    0.86150    1.000
    C737     C        0.12150    0.68625    0.83290    1.000
    H738     H        0.11340    0.65020    0.82830    1.000
    C739     C        0.81720    0.72420    0.84450    1.000
    C740     C        0.90770    0.73646    0.82900    1.000
    H741     H        0.91020    0.72620    0.79170    1.000
    H742     H        0.91940    0.77380    0.83240    1.000
    C743     C        0.97580    0.70645    0.86620    1.000
    C744     C        0.95930    0.64850    0.86010    1.000
    H745     H        0.00450    0.62920    0.88370    1.000
    H746     H        0.96240    0.63780    0.82310    1.000
    C747     C        0.86810    0.63700    0.87510    1.000
    H748     H        0.85640    0.59920    0.87120    1.000
    C749     C        0.79990    0.66594    0.83800    1.000
    H750     H        0.80310    0.65550    0.80090    1.000
    H751     H        0.74040    0.65770    0.84650    1.000
    C752     C        0.81270    0.74010    0.90170    1.000
    H753     H        0.75360    0.73280    0.91120    1.000
    H754     H        0.82380    0.77750    0.90590    1.000
    C755     C        0.88140    0.71020    0.93810    1.000
    H756     H        0.87870    0.72090    0.97560    1.000
    C757     C        0.97260    0.72260    0.92370    1.000
    H758     H        0.01780    0.70370    0.94750    1.000
    H759     H        0.98440    0.75990    0.92780    1.000
    C760     C        0.86390    0.65260    0.93280    1.000
    H761     H        0.90850    0.63340    0.95680    1.000
    H762     H        0.80530    0.64450    0.94270    1.000
    C763     C        0.28790    0.79530    0.67460    1.000
    H764     H        0.31630    0.81890    0.65390    1.000
    C765     C        0.18790    0.75370    0.70880    1.000
    H766     H        0.13260    0.74210    0.71690    1.000
    C767     C        0.85580    0.78120    0.62880    1.000
    H768     H        0.88720    0.75310    0.61670    1.000
    C769     C        0.82360    0.85780    0.65290    1.000
    H770     H        0.82620    0.89350    0.66100    1.000
    C771     C        0.13470    0.82750    0.64530    1.000
    C772     C        0.14210    0.82540    0.58620    1.000
    H773     H        0.20190    0.83540    0.58000    1.000
    H774     H        0.13070    0.79000    0.57280    1.000
    C775     C        0.07440    0.86260    0.55710    1.000
    H776     H        0.07860    0.86170    0.51830    1.000
    C777     C        0.98270    0.84590    0.56670    1.000
    H778     H        0.93840    0.86920    0.54750    1.000
    H779     H        0.97090    0.81050    0.55320    1.000
    C780     C        0.97600    0.84770    0.62630    1.000
    C781     C        0.04310    0.81063    0.65570    1.000
    H782     H        0.03130    0.77500    0.64280    1.000
    H783     H        0.03920    0.81150    0.69420    1.000
    C784     C        0.15350    0.88150    0.66650    1.000
    H785     H        0.15010    0.88230    0.70510    1.000
    H786     H        0.21320    0.89210    0.66070    1.000
    C787     C        0.08540    0.91840    0.63760    1.000
    H788     H        0.09760    0.95410    0.65130    1.000
    C789     C        0.99370    0.90255    0.64730    1.000
    H790     H        0.98900    0.90380    0.68570    1.000
    H791     H        0.94980    0.92650    0.62880    1.000
    C792     C        0.09240    0.91710    0.57800    1.000
    H793     H        0.15190    0.92800    0.57180    1.000
    H794     H        0.04930    0.94120    0.55910    1.000
    C795     C        0.46530    0.15974    0.76070    1.000
    H796     H        0.41320    0.17070    0.77360    1.000
    C797     C        0.56500    0.11211    0.73330    1.000
    H798     H        0.59610    0.08290    0.72340    1.000
    C799     C        0.42020    0.87605    0.74790    1.000
    H800     H        0.36850    0.86800    0.76300    1.000
    C801     C        0.52370    0.91827    0.71760    1.000
    H802     H        0.55880    0.94560    0.70730    1.000
    C803     C        0.42920    0.06667    0.76280    1.000
    C804     C        0.41050    0.97253    0.75720    1.000
    C805     C        0.47000    0.01713    0.74510    1.000
    H806     H        0.47440    0.01850    0.70660    1.000
    H807     H        0.52970    0.01250    0.76450    1.000
    C808     C        0.31890    0.97879    0.72620    1.000
    H809     H        0.32260    0.97920    0.68770    1.000
    H810     H        0.28110    0.94960    0.73390    1.000
    C811     C        0.27980    0.02937    0.74280    1.000
    H812     H        0.22000    0.03410    0.72250    1.000
    C813     C        0.33890    0.07448    0.73120    1.000
    H814     H        0.31330    0.10740    0.74150    1.000
    H815     H        0.34380    0.07580    0.69280    1.000
    C816     C        0.42300    0.06532    0.82140    1.000
    H817     H        0.48230    0.06130    0.84150    1.000
    H818     H        0.39770    0.09800    0.83240    1.000
    C819     C        0.36480    0.02015    0.83340    1.000
    H820     H        0.36050    0.01900    0.87220    1.000
    C821     C        0.40410    0.96977    0.81620    1.000
    H822     H        0.36650    0.94040    0.82370    1.000
    H823     H        0.46320    0.96450    0.83630    1.000
    C824     C        0.27260    0.02780    0.80210    1.000
    H825     H        0.24690    0.06040    0.81300    1.000
    H826     H        0.23360    0.99920    0.80970    1.000
    O827     O        0.60830    0.88804    0.62002    1.000
    H828     H        0.63810    0.88120    0.59470    1.000
    H829     H        0.55410    0.88400    0.60810    1.000
    O830     O        0.32380    0.86211    0.35358    1.000
    H831     H        0.37210    0.85480    0.37310    1.000
    H832     H        0.28300    0.86240    0.37360    1.000
