# CIF file generated by openbabel 3.1.0, see https://openbabel.org
data_I
_chemical_name_common 'image0'
_cell_length_a 13.987
_cell_length_b 16.153
_cell_length_c 17.299
_cell_angle_alpha 70.01
_cell_angle_beta 79.69
_cell_angle_gamma 66.1
_space_group_name_H-M_alt 'P 1'
_space_group_name_Hall 'P 1'
loop_
    _symmetry_equiv_pos_as_xyz
    x,y,z
loop_
    _atom_site_label
    _atom_site_type_symbol
    _atom_site_fract_x
    _atom_site_fract_y
    _atom_site_fract_z
    _atom_site_occupancy
    Ni1      Ni       0.71199    0.67213    0.63699    1.000
    C1       C        0.88220    0.73940    0.64840    1.000
    H1       H        0.86940    0.72360    0.70520    1.000
    C2       C        0.87300    0.75910    0.52450    1.000
    H2       H        0.85500    0.76000    0.47490    1.000
    C3       C        0.94190    0.79780    0.53200    1.000
    H3       H        0.97750    0.82880    0.48920    1.000
    C4       C        0.00540    0.81370    0.64880    1.000
    H4       H        0.02950    0.86050    0.60790    1.000
    H5       H        0.06590    0.76030    0.67470    1.000
    C5       C        0.93120    0.85710    0.71340    1.000
    C6       C        0.86070    0.95030    0.69030    1.000
    H6       H        0.86200    0.98790    0.63600    1.000
    C7       C        0.78860    0.98750    0.74730    1.000
    H7       H        0.74040    0.04950    0.73050    1.000
    C8       C        0.78700    0.93320    0.83030    1.000
    C9       C        0.85770    0.84120    0.85090    1.000
    H8       H        0.85550    0.80310    0.90490    1.000
    C10      C        0.93210    0.80200    0.79590    1.000
    H9       H        0.98130    0.74060    0.81330    1.000
    N1       N        0.67800    0.06850    0.87170    1.000
    N2       N        0.59840    0.05420    0.00370    1.000
    N3       N        0.69800    0.91720    0.96390    1.000
    C11      C        0.57750    0.20900    0.91030    1.000
    C12      C        0.59390    0.26360    0.83120    1.000
    H10      H        0.63390    0.23500    0.79160    1.000
    C13      C        0.54930    0.36220    0.81240    1.000
    H11      H        0.55910    0.39920    0.75930    1.000
    C14      C        0.49100    0.40640    0.87030    1.000
    C15      C        0.47850    0.35080    0.94640    1.000
    H12      H        0.43960    0.37910    0.98650    1.000
    C16      C        0.52110    0.25450    0.96670    1.000
    H13      H        0.51150    0.21880    0.02040    1.000
    C17      C        0.44030    0.51220    0.84920    1.000
    H14      H        0.36540    0.53050    0.84770    1.000
    H15      H        0.45240    0.53180    0.89250    1.000
    C18      C        0.61630    0.90220    0.10020    1.000
    C19      C        0.55290    0.94250    0.15690    1.000
    H16      H        0.52260    0.00820    0.14390    1.000
    C20      C        0.53250    0.88670    0.23460    1.000
    H17      H        0.48820    0.91620    0.27230    1.000
    C21      C        0.64400    0.74920    0.19760    1.000
    H18      H        0.67670    0.68350    0.21090    1.000
    C22      C        0.66320    0.80490    0.12070    1.000
    H19      H        0.70810    0.77660    0.08250    1.000
    C23      C        0.79620    0.46160    0.65220    1.000
    H20      H        0.73010    0.46830    0.64150    1.000
    C24      C        0.92290    0.49170    0.67070    1.000
    H21      H        0.96190    0.52440    0.67540    1.000
    C25      C        0.96110    0.39900    0.67490    1.000
    H22      H        0.02980    0.35640    0.68410    1.000
    C26      C        0.88710    0.28980    0.65850    1.000
    H23      H        0.94610    0.26840    0.62150    1.000
    H24      H        0.82440    0.29950    0.63450    1.000
    C27      C        0.90010    0.21270    0.73890    1.000
    C28      C        0.85660    0.23250    0.81180    1.000
    H25      H        0.82490    0.29520    0.81260    1.000
    C29      C        0.86020    0.15910    0.88400    1.000
    H26      H        0.82750    0.17350    0.93210    1.000
    C30      C        0.91070    0.06610    0.88590    1.000
    C31      C        0.95710    0.04510    0.81380    1.000
    H27      H        0.99150    0.98240    0.81370    1.000
    C32      C        0.95140    0.11930    0.74140    1.000
    H28      H        0.98360    0.10500    0.69320    1.000
    N4       N        0.85430    0.01020    0.02760    1.000
    N5       N        0.89980    0.84690    0.09490    1.000
    N6       N        0.96570    0.89950    0.96090    1.000
    C33      C        0.00940    0.73180    0.02810    1.000
    C34      C        0.97400    0.65960    0.08360    1.000
    H29      H        0.91710    0.67650    0.11990    1.000
    C35      C        0.02120    0.56740    0.08460    1.000
    H30      H        0.99370    0.52290    0.11870    1.000
    C36      C        0.14640    0.60570    0.98000    1.000
    H31      H        0.20410    0.58750    0.94480    1.000
    C37      C        0.09700    0.70160    0.97670    1.000
    H32      H        0.12290    0.74580    0.93970    1.000
    C38      C        0.79870    0.95720    0.16990    1.000
    C39      C        0.76100    0.04420    0.17520    1.000
    H33      H        0.76700    0.09380    0.12980    1.000
    C40      C        0.79090    0.88430    0.23820    1.000
    H34      H        0.81710    0.82260    0.23510    1.000
    C41      C        0.21820    0.40100    0.18250    1.000
    H35      H        0.17280    0.45850    0.19060    1.000
    C42      C        0.33110    0.26270    0.20280    1.000
    H36      H        0.38120    0.20380    0.22720    1.000
    C43      C        0.29680    0.29290    0.12450    1.000
    H37      H        0.31910    0.25820    0.08710    1.000
    C44      C        0.16310    0.43700    0.03720    1.000
    H38      H        0.11030    0.41220    0.03800    1.000
    H39      H        0.20850    0.43150    0.98820    1.000
    C45      C        0.11150    0.53900    0.03400    1.000
    C46      C        0.61860    0.72210    0.46910    1.000
    H40      H        0.55580    0.76560    0.48340    1.000
    C47      C        0.77260    0.62640    0.46990    1.000
    H41      H        0.84090    0.58800    0.48530    1.000
    C48      C        0.73270    0.63670    0.39960    1.000
    H42      H        0.76750    0.60730    0.35930    1.000
    C49      C        0.55720    0.72600    0.33980    1.000
    H43      H        0.48850    0.75820    0.36200    1.000
    H44      H        0.55650    0.66940    0.33230    1.000
    C50      C        0.57560    0.79020    0.25670    1.000
    C51      C        0.56260    0.58910    0.75670    1.000
    H45      H        0.59900    0.58400    0.79920    1.000
    C52      C        0.51800    0.61570    0.64110    1.000
    H46      H        0.51590    0.63340    0.58410    1.000
    C53      C        0.44940    0.58070    0.69500    1.000
    H47      H        0.39380    0.57090    0.68190    1.000
    C54      C        0.50050    0.15550    0.38610    1.000
    H48      H        0.53590    0.19450    0.38280    1.000
    C55      C        0.37710    0.10760    0.39180    1.000
    H49      H        0.31100    0.10610    0.39340    1.000
    C56      C        0.46780    0.03110    0.39890    1.000
    H50      H        0.47520    0.96930    0.40510    1.000
    C57      C        0.65790    0.01030    0.39840    1.000
    H51      H        0.69130    0.04550    0.41190    1.000
    H52      H        0.67090    0.95060    0.44200    1.000
    C58      C        0.70680    0.99010    0.31820    1.000
    C59      C        0.71140    0.06290    0.24950    1.000
    H53      H        0.68170    0.12510    0.25170    1.000
    C60      C        0.74420    0.90250    0.31150    1.000
    H54      H        0.73880    0.85270    0.35680    1.000
    N7       N        0.83630    0.72020    0.59900    1.000
    N8       N        0.94710    0.78260    0.61000    1.000
    N9       N        0.81770    0.53000    0.65830    1.000
    N10      N        0.87960    0.38040    0.66290    1.000
    N11      N        0.28040    0.33260    0.23840    1.000
    N12      N        0.22610    0.38020    0.11210    1.000
    N13      N        0.70060    0.67910    0.51440    1.000
    N14      N        0.63410    0.69730    0.39990    1.000
    N15      N        0.39560    0.18680    0.38200    1.000
    N16      N        0.54770    0.06320    0.39510    1.000
    N17      N        0.58790    0.62150    0.67940    1.000
    N18      N        0.47850    0.56330    0.77010    1.000
    C61      C        0.71410    0.97740    0.89110    1.000
    C62      C        0.61900    0.10510    0.92940    1.000
    C63      C        0.63730    0.96230    0.01820    1.000
    C64      C        0.91220    0.98600    0.96150    1.000
    C65      C        0.85460    0.93530    0.09360    1.000
    C66      C        0.95710    0.83090    0.02770    1.000
    Ni2      Ni       0.28801    0.32787    0.36301    1.000
    C67      C        0.11780    0.26060    0.35160    1.000
    H55      H        0.13060    0.27640    0.29480    1.000
    C68      C        0.12700    0.24090    0.47550    1.000
    H56      H        0.14500    0.24000    0.52510    1.000
    C69      C        0.05810    0.20220    0.46800    1.000
    H57      H        0.02250    0.17120    0.51080    1.000
    C70      C        0.99460    0.18630    0.35120    1.000
    H58      H        0.97050    0.13950    0.39210    1.000
    H59      H        0.93410    0.23970    0.32530    1.000
    C71      C        0.06880    0.14290    0.28660    1.000
    C72      C        0.13930    0.04970    0.30970    1.000
    H60      H        0.13800    0.01210    0.36400    1.000
    C73      C        0.21140    0.01250    0.25270    1.000
    H61      H        0.25960    0.95050    0.26950    1.000
    C74      C        0.21300    0.06680    0.16970    1.000
    C75      C        0.14230    0.15880    0.14910    1.000
    H62      H        0.14450    0.19690    0.09510    1.000
    C76      C        0.06790    0.19800    0.20410    1.000
    H63      H        0.01870    0.25940    0.18670    1.000
    N19      N        0.32200    0.93150    0.12830    1.000
    N20      N        0.40160    0.94580    0.99630    1.000
    N21      N        0.30200    0.08280    0.03610    1.000
    C77      C        0.42250    0.79100    0.08970    1.000
    C78      C        0.40610    0.73640    0.16880    1.000
    H64      H        0.36610    0.76500    0.20840    1.000
    C79      C        0.45070    0.63780    0.18760    1.000
    H65      H        0.44090    0.60080    0.24070    1.000
    C80      C        0.50900    0.59360    0.12970    1.000
    C81      C        0.52150    0.64920    0.05360    1.000
    H66      H        0.56040    0.62090    0.01350    1.000
    C82      C        0.47890    0.74550    0.03330    1.000
    H67      H        0.48850    0.78120    0.97960    1.000
    C83      C        0.55970    0.48780    0.15080    1.000
    H68      H        0.63460    0.46950    0.15230    1.000
    H69      H        0.54760    0.46820    0.10750    1.000
    C84      C        0.38370    0.09780    0.89980    1.000
    C85      C        0.44710    0.05750    0.84310    1.000
    H70      H        0.47740    0.99180    0.85610    1.000
    C86      C        0.46750    0.11330    0.76540    1.000
    H71      H        0.51180    0.08380    0.72770    1.000
    C87      C        0.35600    0.25080    0.80240    1.000
    H72      H        0.32330    0.31650    0.78910    1.000
    C88      C        0.33680    0.19510    0.87930    1.000
    H73      H        0.29190    0.22340    0.91750    1.000
    C89      C        0.20380    0.53840    0.34780    1.000
    H74      H        0.26990    0.53170    0.35850    1.000
    C90      C        0.07710    0.50830    0.32930    1.000
    H75      H        0.03810    0.47560    0.32460    1.000
    C91      C        0.03890    0.60100    0.32510    1.000
    H76      H        0.97020    0.64360    0.31590    1.000
    C92      C        0.11290    0.71020    0.34150    1.000
    H77      H        0.05390    0.73160    0.37850    1.000
    H78      H        0.17560    0.70050    0.36550    1.000
    C93      C        0.09990    0.78730    0.26110    1.000
    C94      C        0.14340    0.76750    0.18820    1.000
    H79      H        0.17510    0.70480    0.18740    1.000
    C95      C        0.13980    0.84090    0.11600    1.000
    H80      H        0.17250    0.82650    0.06790    1.000
    C96      C        0.08930    0.93390    0.11410    1.000
    C97      C        0.04290    0.95490    0.18620    1.000
    H81      H        0.00850    0.01760    0.18630    1.000
    C98      C        0.04860    0.88070    0.25860    1.000
    H82      H        0.01640    0.89500    0.30680    1.000
    N22      N        0.14570    0.98980    0.97240    1.000
    N23      N        0.10020    0.15310    0.90510    1.000
    N24      N        0.03430    0.10050    0.03910    1.000
    C99      C        0.99060    0.26820    0.97190    1.000
    C100     C        0.02600    0.34040    0.91640    1.000
    H83      H        0.08290    0.32350    0.88010    1.000
    C101     C        0.97880    0.43260    0.91540    1.000
    H84      H        0.00630    0.47710    0.88130    1.000
    C102     C        0.85360    0.39430    0.02000    1.000
    H85      H        0.79590    0.41250    0.05520    1.000
    C103     C        0.90300    0.29840    0.02330    1.000
    H86      H        0.87710    0.25420    0.06030    1.000
    C104     C        0.20130    0.04280    0.83010    1.000
    C105     C        0.23900    0.95580    0.82480    1.000
    H87      H        0.23300    0.90620    0.87020    1.000
    C106     C        0.20910    0.11570    0.76180    1.000
    H88      H        0.18290    0.17740    0.76490    1.000
    C107     C        0.78180    0.59900    0.81750    1.000
    H89      H        0.82720    0.54150    0.80940    1.000
    C108     C        0.66890    0.73730    0.79720    1.000
    H90      H        0.61880    0.79620    0.77280    1.000
    C109     C        0.70320    0.70710    0.87550    1.000
    H91      H        0.68090    0.74180    0.91290    1.000
    C110     C        0.83690    0.56300    0.96280    1.000
    H92      H        0.88970    0.58780    0.96200    1.000
    H93      H        0.79150    0.56850    0.01180    1.000
    C111     C        0.88850    0.46100    0.96600    1.000
    C112     C        0.38140    0.27790    0.53090    1.000
    H94      H        0.44420    0.23440    0.51660    1.000
    C113     C        0.22740    0.37360    0.53010    1.000
    H95      H        0.15910    0.41200    0.51470    1.000
    C114     C        0.26730    0.36330    0.60040    1.000
    H96      H        0.23250    0.39270    0.64070    1.000
    C115     C        0.44280    0.27400    0.66020    1.000
    H97      H        0.51150    0.24180    0.63800    1.000
    H98      H        0.44350    0.33060    0.66770    1.000
    C116     C        0.42440    0.20980    0.74330    1.000
    C117     C        0.43740    0.41090    0.24330    1.000
    H99      H        0.40100    0.41600    0.20080    1.000
    C118     C        0.48200    0.38430    0.35890    1.000
    H100     H        0.48410    0.36660    0.41590    1.000
    C119     C        0.55060    0.41930    0.30500    1.000
    H101     H        0.60620    0.42910    0.31810    1.000
    C120     C        0.49950    0.84450    0.61390    1.000
    H102     H        0.46410    0.80550    0.61720    1.000
    C121     C        0.62290    0.89240    0.60820    1.000
    H103     H        0.68900    0.89390    0.60660    1.000
    C122     C        0.53220    0.96890    0.60110    1.000
    H104     H        0.52480    0.03070    0.59490    1.000
    C123     C        0.34210    0.98970    0.60160    1.000
    H105     H        0.30870    0.95450    0.58810    1.000
    H106     H        0.32910    0.04940    0.55800    1.000
    C124     C        0.29320    0.00990    0.68180    1.000
    C125     C        0.28860    0.93710    0.75050    1.000
    H107     H        0.31830    0.87490    0.74830    1.000
    C126     C        0.25580    0.09750    0.68850    1.000
    H108     H        0.26120    0.14730    0.64320    1.000
    N25      N        0.16370    0.27980    0.40100    1.000
    N26      N        0.05290    0.21740    0.39000    1.000
    N27      N        0.18230    0.47000    0.34170    1.000
    N28      N        0.12040    0.61960    0.33710    1.000
    N29      N        0.71960    0.66740    0.76160    1.000
    N30      N        0.77390    0.61980    0.88790    1.000
    N31      N        0.29940    0.32090    0.48560    1.000
    N32      N        0.36590    0.30270    0.60010    1.000
    N33      N        0.60440    0.81320    0.61800    1.000
    N34      N        0.45230    0.93680    0.60490    1.000
    N35      N        0.41210    0.37850    0.32060    1.000
    N36      N        0.52150    0.43670    0.22990    1.000
    C127     C        0.28590    0.02260    0.10890    1.000
    C128     C        0.38100    0.89490    0.07060    1.000
    C129     C        0.36270    0.03770    0.98180    1.000
    C130     C        0.08780    0.01400    0.03850    1.000
    C131     C        0.14540    0.06470    0.90640    1.000
    C132     C        0.04290    0.16910    0.97230    1.000
