# CIF file generated by openbabel 3.1.0, see https://openbabel.org
data_I
_chemical_name_common 'image0'
_cell_length_a 10.7435
_cell_length_b 21.4819
_cell_length_c 10.7721
_cell_angle_alpha 90
_cell_angle_beta 105.113
_cell_angle_gamma 90
_space_group_name_H-M_alt 'P 1'
_space_group_name_Hall 'P 1'
loop_
    _symmetry_equiv_pos_as_xyz
    x,y,z
loop_
    _atom_site_label
    _atom_site_type_symbol
    _atom_site_fract_x
    _atom_site_fract_y
    _atom_site_fract_z
    _atom_site_occupancy
    In1      In       0.32147    0.05807    0.18607    1.000
    O1       O        0.43910    0.99006    0.30130    1.000
    O2       O        0.20060    0.98990    0.07640    1.000
    O3       O        0.20900    0.06516    0.32430    1.000
    O4       O        0.31690    0.03503    0.52200    1.000
    O5       O        0.03800    0.03902    0.82730    1.000
    O6       O        0.85520    0.09424    0.75790    1.000
    O7       O        0.99740    0.09392    0.07280    1.000
    O8       O        0.19660    0.13321    0.09600    1.000
    O9       O        0.44260    0.13327    0.28690    1.000
    O10      O        0.56320    0.09353    0.47260    1.000
    O11      O        0.10380    0.06302    0.60820    1.000
    C1       C        0.21780    0.05550    0.44110    1.000
    C2       C        0.10110    0.06970    0.48140    1.000
    C3       C        0.98300    0.08690    0.41360    1.000
    H1       H        0.95630    0.09320    0.32520    1.000
    C4       C        0.90700    0.09370    0.50150    1.000
    H2       H        0.82150    0.10650    0.48350    1.000
    C5       C        0.98300    0.07790    0.61530    1.000
    C6       C        0.95550    0.07090    0.74440    1.000
    C7       C        0.07680    0.13720    0.07560    1.000
    C8       C        0.01810    0.19910    0.04970    1.000
    C9       C        0.90080    0.21760    0.96790    1.000
    H3       H        0.83540    0.19170    0.92220    1.000
    C10      C        0.52210    0.13750    0.39520    1.000
    C11      C        0.57450    0.19940    0.44110    1.000
    C12      C        0.66300    0.21750    0.54750    1.000
    H4       H        0.71450    0.19170    0.60940    1.000
    C13      C        0.89580    0.21730    0.06600    1.000
    H5       H        0.82950    0.19120    0.07440    1.000
    In2      In       0.67853    0.55807    0.81393    1.000
    O12      O        0.56090    0.49006    0.69870    1.000
    O13      O        0.79940    0.48990    0.92360    1.000
    O14      O        0.79100    0.56516    0.67570    1.000
    O15      O        0.68310    0.53503    0.47800    1.000
    O16      O        0.96200    0.53902    0.17270    1.000
    O17      O        0.14480    0.59424    0.24210    1.000
    O18      O        0.00260    0.59392    0.92720    1.000
    O19      O        0.80340    0.63321    0.90400    1.000
    O20      O        0.55740    0.63327    0.71310    1.000
    O21      O        0.43680    0.59353    0.52740    1.000
    O22      O        0.89620    0.56302    0.39180    1.000
    C14      C        0.78220    0.55550    0.55890    1.000
    C15      C        0.89890    0.56970    0.51860    1.000
    C16      C        0.01700    0.58690    0.58640    1.000
    H6       H        0.04370    0.59320    0.67480    1.000
    C17      C        0.09300    0.59370    0.49850    1.000
    H7       H        0.17850    0.60650    0.51650    1.000
    C18      C        0.01700    0.57790    0.38470    1.000
    C19      C        0.04450    0.57090    0.25560    1.000
    C20      C        0.92320    0.63720    0.92440    1.000
    C21      C        0.98190    0.69910    0.95030    1.000
    C22      C        0.09920    0.71760    0.03210    1.000
    H8       H        0.16460    0.69170    0.07780    1.000
    C23      C        0.47790    0.63750    0.60480    1.000
    C24      C        0.42550    0.69940    0.55890    1.000
    C25      C        0.33700    0.71750    0.45250    1.000
    H9       H        0.28550    0.69170    0.39060    1.000
    C26      C        0.10420    0.71730    0.93400    1.000
    H10      H        0.17050    0.69120    0.92560    1.000
    In3      In       0.67853    0.94193    0.81393    1.000
    O23      O        0.56090    0.00994    0.69870    1.000
    O24      O        0.79940    0.01010    0.92360    1.000
    O25      O        0.79100    0.93484    0.67570    1.000
    O26      O        0.68310    0.96497    0.47800    1.000
    O27      O        0.96200    0.96098    0.17270    1.000
    O28      O        0.14480    0.90576    0.24210    1.000
    O29      O        0.00260    0.90608    0.92720    1.000
    O30      O        0.80340    0.86679    0.90400    1.000
    O31      O        0.55740    0.86673    0.71310    1.000
    O32      O        0.43680    0.90647    0.52740    1.000
    O33      O        0.89620    0.93698    0.39180    1.000
    C27      C        0.78220    0.94450    0.55890    1.000
    C28      C        0.89890    0.93030    0.51860    1.000
    C29      C        0.01700    0.91310    0.58640    1.000
    H11      H        0.04370    0.90680    0.67480    1.000
    C30      C        0.09300    0.90630    0.49850    1.000
    H12      H        0.17850    0.89350    0.51650    1.000
    C31      C        0.01700    0.92210    0.38470    1.000
    C32      C        0.04450    0.92910    0.25560    1.000
    C33      C        0.92320    0.86280    0.92440    1.000
    C34      C        0.98190    0.80090    0.95030    1.000
    C35      C        0.09920    0.78240    0.03210    1.000
    H13      H        0.16460    0.80830    0.07780    1.000
    C36      C        0.47790    0.86250    0.60480    1.000
    C37      C        0.42550    0.80060    0.55890    1.000
    C38      C        0.33700    0.78250    0.45250    1.000
    H14      H        0.28550    0.80830    0.39060    1.000
    C39      C        0.10420    0.78270    0.93400    1.000
    H15      H        0.17050    0.80880    0.92560    1.000
    In4      In       0.32147    0.44193    0.18607    1.000
    O34      O        0.43910    0.50994    0.30130    1.000
    O35      O        0.20060    0.51010    0.07640    1.000
    O36      O        0.20900    0.43484    0.32430    1.000
    O37      O        0.31690    0.46497    0.52200    1.000
    O38      O        0.03800    0.46098    0.82730    1.000
    O39      O        0.85520    0.40576    0.75790    1.000
    O40      O        0.99740    0.40608    0.07280    1.000
    O41      O        0.19660    0.36679    0.09600    1.000
    O42      O        0.44260    0.36673    0.28690    1.000
    O43      O        0.56320    0.40647    0.47260    1.000
    O44      O        0.10380    0.43698    0.60820    1.000
    C40      C        0.21780    0.44450    0.44110    1.000
    C41      C        0.10110    0.43030    0.48140    1.000
    C42      C        0.98300    0.41310    0.41360    1.000
    H16      H        0.95630    0.40680    0.32520    1.000
    C43      C        0.90700    0.40630    0.50150    1.000
    H17      H        0.82150    0.39350    0.48350    1.000
    C44      C        0.98300    0.42210    0.61530    1.000
    C45      C        0.95550    0.42910    0.74440    1.000
    C46      C        0.07680    0.36280    0.07560    1.000
    C47      C        0.01810    0.30090    0.04970    1.000
    C48      C        0.90080    0.28240    0.96790    1.000
    H18      H        0.83540    0.30830    0.92220    1.000
    C49      C        0.52210    0.36250    0.39520    1.000
    C50      C        0.57450    0.30060    0.44110    1.000
    C51      C        0.66300    0.28250    0.54750    1.000
    H19      H        0.71450    0.30830    0.60940    1.000
    C52      C        0.89580    0.28270    0.06600    1.000
    H20      H        0.82950    0.30880    0.07440    1.000
    In5      In       0.00000    0.00000    0.00000    1.000
    In6      In       0.00000    0.50000    0.00000    1.000
    In7      In       0.50000    0.00000    0.50000    1.000
    In8      In       0.50000    0.50000    0.50000    1.000
    O45      O        0.09540    0.25000    0.08010    1.000
    O46      O        0.51750    0.25000    0.37130    1.000
    O47      O        0.90460    0.75000    0.91990    1.000
    O48      O        0.48250    0.75000    0.62870    1.000
