# CIF file generated by openbabel 3.1.0, see https://openbabel.org
data_I
_chemical_name_common 'ICOWON_clean'
_cell_length_a 8.7544
_cell_length_b 10.0037
_cell_length_c 11.7895
_cell_angle_alpha 74.695
_cell_angle_beta 69.848
_cell_angle_gamma 86.182
_space_group_name_H-M_alt 'P 1'
_space_group_name_Hall 'P 1'
loop_
    _symmetry_equiv_pos_as_xyz
    x,y,z
loop_
    _atom_site_label
    _atom_site_type_symbol
    _atom_site_fract_x
    _atom_site_fract_y
    _atom_site_fract_z
    _atom_site_occupancy
    La1      La       0.25466    0.52247    0.48761    1.000
    La2      La       0.74534    0.47753    0.51239    1.000
    H1       H        0.76670    0.70040    0.13640    1.000
    H2       H        0.79380    0.54060    0.16250    1.000
    H3       H        0.62650    0.69070    0.00520    1.000
    H4       H        0.62710    0.52840    0.04130    1.000
    H5       H        0.91300    0.53960    0.94030    1.000
    H6       H        0.90460    0.70150    0.89780    1.000
    H7       H        0.75650    0.68620    0.77480    1.000
    H8       H        0.73680    0.52540    0.82780    1.000
    H9       H        0.27560    0.03300    0.39950    1.000
    H10      H        0.24020    0.01990    0.28120    1.000
    H11      H        0.02180    0.12180    0.40170    1.000
    H12      H        0.96460    0.97850    0.39770    1.000
    H13      H        0.23330    0.29960    0.86360    1.000
    H14      H        0.20620    0.45940    0.83750    1.000
    H15      H        0.37350    0.30930    0.99480    1.000
    H16      H        0.37290    0.47160    0.95870    1.000
    H17      H        0.08700    0.46040    0.05970    1.000
    H18      H        0.09540    0.29850    0.10220    1.000
    H19      H        0.24350    0.31380    0.22520    1.000
    H20      H        0.26320    0.47460    0.17220    1.000
    H21      H        0.72440    0.96700    0.60050    1.000
    H22      H        0.75980    0.98010    0.71880    1.000
    H23      H        0.97820    0.87820    0.59830    1.000
    H24      H        0.03540    0.02150    0.60230    1.000
    C1       C        0.56590    0.58810    0.26100    1.000
    C2       C        0.71730    0.61190    0.14750    1.000
    C3       C        0.69020    0.61120    0.02680    1.000
    C4       C        0.84510    0.61520    0.91740    1.000
    C5       C        0.81160    0.60350    0.80310    1.000
    C6       C        0.95600    0.58550    0.69450    1.000
    C7       C        0.23610    0.83220    0.40460    1.000
    C8       C        0.20750    0.98600    0.37140    1.000
    C9       C        0.03200    0.02230    0.42880    1.000
    C10      C        0.43410    0.41190    0.73900    1.000
    C11      C        0.28270    0.38810    0.85250    1.000
    C12      C        0.30980    0.38880    0.97320    1.000
    C13      C        0.15490    0.38480    0.08260    1.000
    C14      C        0.18840    0.39650    0.19690    1.000
    C15      C        0.04400    0.41450    0.30550    1.000
    C16      C        0.76390    0.16780    0.59540    1.000
    C17      C        0.79250    0.01400    0.62860    1.000
    C18      C        0.96800    0.97770    0.57120    1.000
    O1       O        0.42720    0.60740    0.25050    1.000
    O2       O        0.57730    0.54610    0.37000    1.000
    O3       O        0.09860    0.61780    0.68310    1.000
    O4       O        0.93320    0.53570    0.61178    1.000
    O5       O        0.13730    0.74980    0.39950    1.000
    O6       O        0.35680    0.78550    0.43760    1.000
    O7       O        0.57280    0.39260    0.74950    1.000
    O8       O        0.42270    0.45390    0.63000    1.000
    O9       O        0.90140    0.38220    0.31690    1.000
    O10      O        0.06680    0.46430    0.38822    1.000
    O11      O        0.86270    0.25020    0.60050    1.000
    O12      O        0.64320    0.21450    0.56240    1.000
