# CIF file generated by openbabel 3.1.0, see https://openbabel.org
data_I
_chemical_name_common 'image0'
_cell_length_a 17.611
_cell_length_b 8.2632
_cell_length_c 9.4939
_cell_angle_alpha 90
_cell_angle_beta 96.128
_cell_angle_gamma 90
_space_group_name_H-M_alt 'P 1'
_space_group_name_Hall 'P 1'
loop_
    _symmetry_equiv_pos_as_xyz
    x,y,z
loop_
    _atom_site_label
    _atom_site_type_symbol
    _atom_site_fract_x
    _atom_site_fract_y
    _atom_site_fract_z
    _atom_site_occupancy
    C1       C        0.37470    0.02080    0.67120    1.000
    C2       C        0.43900    0.00830    0.58200    1.000
    C3       C        0.46280    0.14690    0.51410    1.000
    H1       H        0.43780    0.24500    0.52260    1.000
    C4       C        0.52460    0.13610    0.43330    1.000
    H2       H        0.54110    0.22830    0.38930    1.000
    N1       N        0.36710    0.14420    0.75930    1.000
    N2       N        0.30390    0.10630    0.82140    1.000
    N3       N        0.27430    0.97150    0.76970    1.000
    N4       N        0.31810    0.91160    0.67440    1.000
    Cd1      Cd       0.24880    0.24720    0.80450    1.000
    O1       O        0.24910    0.25000    0.59600    1.000
    C5       C        0.87470    0.52080    0.67120    1.000
    C6       C        0.93900    0.50830    0.58200    1.000
    C7       C        0.96280    0.64690    0.51410    1.000
    H3       H        0.93780    0.74500    0.52260    1.000
    C8       C        0.02460    0.63610    0.43330    1.000
    H4       H        0.04110    0.72830    0.38930    1.000
    N5       N        0.86710    0.64420    0.75930    1.000
    N6       N        0.80390    0.60630    0.82140    1.000
    N7       N        0.77430    0.47150    0.76970    1.000
    N8       N        0.81810    0.41160    0.67440    1.000
    Cd2      Cd       0.74880    0.74720    0.80450    1.000
    O2       O        0.74910    0.75000    0.59600    1.000
    C9       C        0.62530    0.02080    0.82880    1.000
    C10      C        0.56100    0.00830    0.91800    1.000
    C11      C        0.53720    0.14690    0.98590    1.000
    H5       H        0.56220    0.24500    0.97740    1.000
    C12      C        0.47540    0.13610    0.06670    1.000
    H6       H        0.45890    0.22830    0.11070    1.000
    N9       N        0.63290    0.14420    0.74070    1.000
    N10      N        0.69610    0.10630    0.67860    1.000
    N11      N        0.72570    0.97150    0.73030    1.000
    N12      N        0.68190    0.91160    0.82560    1.000
    Cd3      Cd       0.75120    0.24720    0.69550    1.000
    O3       O        0.75090    0.25000    0.90400    1.000
    C13      C        0.12530    0.52080    0.82880    1.000
    C14      C        0.06100    0.50830    0.91800    1.000
    C15      C        0.03720    0.64690    0.98590    1.000
    H7       H        0.06220    0.74500    0.97740    1.000
    C16      C        0.97540    0.63610    0.06670    1.000
    H8       H        0.95890    0.72830    0.11070    1.000
    N13      N        0.13290    0.64420    0.74070    1.000
    N14      N        0.19610    0.60630    0.67860    1.000
    N15      N        0.22570    0.47150    0.73030    1.000
    N16      N        0.18190    0.41160    0.82560    1.000
    Cd4      Cd       0.25120    0.74720    0.69550    1.000
    O4       O        0.25090    0.75000    0.90400    1.000
    C17      C        0.62530    0.97920    0.32880    1.000
    C18      C        0.56100    0.99170    0.41800    1.000
    C19      C        0.53720    0.85310    0.48590    1.000
    H9       H        0.56220    0.75500    0.47740    1.000
    C20      C        0.47540    0.86390    0.56670    1.000
    H10      H        0.45890    0.77170    0.61070    1.000
    N17      N        0.63290    0.85580    0.24070    1.000
    N18      N        0.69610    0.89370    0.17860    1.000
    N19      N        0.72570    0.02850    0.23030    1.000
    N20      N        0.68190    0.08840    0.32560    1.000
    Cd5      Cd       0.75120    0.75280    0.19550    1.000
    O5       O        0.75090    0.75000    0.40400    1.000
    C21      C        0.12530    0.47920    0.32880    1.000
    C22      C        0.06100    0.49170    0.41800    1.000
    C23      C        0.03720    0.35310    0.48590    1.000
    H11      H        0.06220    0.25500    0.47740    1.000
    C24      C        0.97540    0.36390    0.56670    1.000
    H12      H        0.95890    0.27170    0.61070    1.000
    N21      N        0.13290    0.35580    0.24070    1.000
    N22      N        0.19610    0.39370    0.17860    1.000
    N23      N        0.22570    0.52850    0.23030    1.000
    N24      N        0.18190    0.58840    0.32560    1.000
    Cd6      Cd       0.25120    0.25280    0.19550    1.000
    O6       O        0.25090    0.25000    0.40400    1.000
    C25      C        0.37470    0.97920    0.17120    1.000
    C26      C        0.43900    0.99170    0.08200    1.000
    C27      C        0.46280    0.85310    0.01410    1.000
    H13      H        0.43780    0.75500    0.02260    1.000
    C28      C        0.52460    0.86390    0.93330    1.000
    H14      H        0.54110    0.77170    0.88930    1.000
    N25      N        0.36710    0.85580    0.25930    1.000
    N26      N        0.30390    0.89370    0.32140    1.000
    N27      N        0.27430    0.02850    0.26970    1.000
    N28      N        0.31810    0.08840    0.17440    1.000
    Cd7      Cd       0.24880    0.75280    0.30450    1.000
    O7       O        0.24910    0.75000    0.09600    1.000
    C29      C        0.87470    0.47920    0.17120    1.000
    C30      C        0.93900    0.49170    0.08200    1.000
    C31      C        0.96280    0.35310    0.01410    1.000
    H15      H        0.93780    0.25500    0.02260    1.000
    C32      C        0.02460    0.36390    0.93330    1.000
    H16      H        0.04110    0.27170    0.88930    1.000
    N29      N        0.86710    0.35580    0.25930    1.000
    N30      N        0.80390    0.39370    0.32140    1.000
    N31      N        0.77430    0.52850    0.26970    1.000
    N32      N        0.81810    0.58840    0.17440    1.000
    Cd8      Cd       0.74880    0.25280    0.30450    1.000
    O8       O        0.74910    0.25000    0.09600    1.000
    Cd9      Cd       0.25000    0.25000    0.00000    1.000
    Cd10     Cd       0.75000    0.25000    0.50000    1.000
    Cd11     Cd       0.75000    0.75000    0.00000    1.000
    Cd12     Cd       0.25000    0.75000    0.50000    1.000
    O9       O        0.25000    0.25000    0.50000    1.000
    O10      O        0.75000    0.25000    0.00000    1.000
    O11      O        0.75000    0.75000    0.50000    1.000
    O12      O        0.25000    0.75000    0.00000    1.000
