# CIF file generated by openbabel 3.1.0, see https://openbabel.org
data_I
_chemical_name_common 'PAPXUB_clean'
_cell_length_a 10.888
_cell_length_b 12.822
_cell_length_c 13.4783
_cell_angle_alpha 118.402
_cell_angle_beta 109.353
_cell_angle_gamma 90
_space_group_name_H-M_alt 'P 1'
_space_group_name_Hall 'P 1'
loop_
    _symmetry_equiv_pos_as_xyz
    x,y,z
loop_
    _atom_site_label
    _atom_site_type_symbol
    _atom_site_fract_x
    _atom_site_fract_y
    _atom_site_fract_z
    _atom_site_occupancy
    Cd1      Cd       0.75000    0.92086    0.00000    1.000
    Cd2      Cd       0.25000    0.07914    0.00000    1.000
    H1       H        0.89290    0.78440    0.14000    1.000
    H2       H        0.87960    0.71020    0.26280    1.000
    H3       H        0.69940    0.73300    0.32580    1.000
    H4       H        0.55860    0.90090    0.13560    1.000
    H5       H        0.40920    0.80740    0.20120    1.000
    H6       H        0.49590    0.93020    0.32300    1.000
    H7       H        0.53530    0.75440    0.51740    1.000
    H8       H        0.41930    0.79970    0.64520    1.000
    H9       H        0.23520    0.89120    0.61880    1.000
    H10      H        0.28730    0.89420    0.33460    1.000
    H11      H        0.10080    0.97660    0.39200    1.000
    H12      H        0.60710    0.64440    0.86000    1.000
    H13      H        0.62040    0.44740    0.73720    1.000
    H14      H        0.80060    0.40720    0.67420    1.000
    H15      H        0.94140    0.76530    0.86440    1.000
    H16      H        0.09080    0.60620    0.79880    1.000
    H17      H        0.00410    0.60720    0.67700    1.000
    H18      H        0.96470    0.23700    0.48260    1.000
    H19      H        0.08070    0.15450    0.35480    1.000
    H20      H        0.26480    0.27240    0.38120    1.000
    H21      H        0.21270    0.55960    0.66540    1.000
    H22      H        0.39920    0.58460    0.60800    1.000
    H23      H        0.10710    0.21560    0.86000    1.000
    H24      H        0.12040    0.28980    0.73720    1.000
    H25      H        0.30060    0.26700    0.67420    1.000
    H26      H        0.44140    0.09910    0.86440    1.000
    H27      H        0.59080    0.19260    0.79880    1.000
    H28      H        0.50410    0.06980    0.67700    1.000
    H29      H        0.46470    0.24560    0.48260    1.000
    H30      H        0.58070    0.20030    0.35480    1.000
    H31      H        0.76480    0.10880    0.38120    1.000
    H32      H        0.71270    0.10580    0.66540    1.000
    H33      H        0.89920    0.02340    0.60800    1.000
    H34      H        0.39290    0.35560    0.14000    1.000
    H35      H        0.37960    0.55260    0.26280    1.000
    H36      H        0.19940    0.59280    0.32580    1.000
    H37      H        0.05860    0.23470    0.13560    1.000
    H38      H        0.90920    0.39380    0.20120    1.000
    H39      H        0.99590    0.39280    0.32300    1.000
    H40      H        0.03530    0.76300    0.51740    1.000
    H41      H        0.91930    0.84550    0.64520    1.000
    H42      H        0.73520    0.72760    0.61880    1.000
    H43      H        0.78730    0.44040    0.33460    1.000
    H44      H        0.60080    0.41540    0.39200    1.000
    C1       C        0.81930    0.79356    0.16452    1.000
    C2       C        0.81230    0.74950    0.23780    1.000
    C3       C        0.70600    0.76290    0.27500    1.000
    C4       C        0.60960    0.82076    0.23692    1.000
    C5       C        0.62470    0.86160    0.16240    1.000
    C6       C        0.49240    0.84243    0.27426    1.000
    C7       C        0.42170    0.82048    0.41536    1.000
    C8       C        0.46080    0.79220    0.50680    1.000
    C9       C        0.39180    0.81874    0.58208    1.000
    C10      C        0.28250    0.87300    0.56640    1.000
    C11      C        0.24200    0.90102    0.47364    1.000
    C12      C        0.31320    0.87478    0.39756    1.000
    C13      C        0.12480    0.95514    0.45348    1.000
    C14      C        0.90880    0.01694    0.87548    1.000
    C15      C        0.68070    0.62904    0.83548    1.000
    C16      C        0.68770    0.51170    0.76220    1.000
    C17      C        0.79400    0.48790    0.72500    1.000
    C18      C        0.89040    0.58384    0.76308    1.000
    C19      C        0.87530    0.69920    0.83760    1.000
    C20      C        0.00760    0.56817    0.72574    1.000
    C21      C        0.07830    0.40512    0.58464    1.000
    C22      C        0.03920    0.28540    0.49320    1.000
    C23      C        0.10820    0.23666    0.41792    1.000
    C24      C        0.21750    0.30660    0.43360    1.000
    C25      C        0.25800    0.42738    0.52636    1.000
    C26      C        0.18680    0.47722    0.60244    1.000
    C27      C        0.37520    0.50166    0.54652    1.000
    C28      C        0.59120    0.14146    0.12452    1.000
    C29      C        0.18070    0.20644    0.83548    1.000
    C30      C        0.18770    0.25050    0.76220    1.000
    C31      C        0.29400    0.23710    0.72500    1.000
    C32      C        0.39040    0.17924    0.76308    1.000
    C33      C        0.37530    0.13840    0.83760    1.000
    C34      C        0.50760    0.15757    0.72574    1.000
    C35      C        0.57830    0.17952    0.58464    1.000
    C36      C        0.53920    0.20780    0.49320    1.000
    C37      C        0.60820    0.18126    0.41792    1.000
    C38      C        0.71750    0.12700    0.43360    1.000
    C39      C        0.75800    0.09898    0.52636    1.000
    C40      C        0.68680    0.12522    0.60244    1.000
    C41      C        0.87520    0.04486    0.54652    1.000
    C42      C        0.09120    0.98306    0.12452    1.000
    C43      C        0.31930    0.37096    0.16452    1.000
    C44      C        0.31230    0.48830    0.23780    1.000
    C45      C        0.20600    0.51210    0.27500    1.000
    C46      C        0.10960    0.41616    0.23692    1.000
    C47      C        0.12470    0.30080    0.16240    1.000
    C48      C        0.99240    0.43183    0.27426    1.000
    C49      C        0.92170    0.59488    0.41536    1.000
    C50      C        0.96080    0.71460    0.50680    1.000
    C51      C        0.89180    0.76334    0.58208    1.000
    C52      C        0.78250    0.69340    0.56640    1.000
    C53      C        0.74200    0.57262    0.47364    1.000
    C54      C        0.81320    0.52278    0.39756    1.000
    C55      C        0.62480    0.49834    0.45348    1.000
    C56      C        0.40880    0.85854    0.87548    1.000
    S1       S        0.74787    0.98271    0.83304    1.000
    S2       S        0.75213    0.14967    0.16696    1.000
    S3       S        0.25213    0.01729    0.16696    1.000
    S4       S        0.24787    0.85033    0.83304    1.000
    N1       N        0.72660    0.84902    0.12604    1.000
    N2       N        0.05410    0.97403    0.51706    1.000
    N3       N        0.02190    0.03912    0.90204    1.000
    N4       N        0.77340    0.72298    0.87396    1.000
    N5       N        0.44590    0.45697    0.48294    1.000
    N6       N        0.47810    0.13708    0.09796    1.000
    N7       N        0.27340    0.15098    0.87396    1.000
    N8       N        0.94590    0.02597    0.48294    1.000
    N9       N        0.97810    0.96088    0.09796    1.000
    N10      N        0.22660    0.27702    0.12604    1.000
    N11      N        0.55410    0.54303    0.51706    1.000
    N12      N        0.52190    0.86292    0.90204    1.000
    O1       O        0.49620    0.78720    0.34420    1.000
    O2       O        0.00380    0.44300    0.65580    1.000
    O3       O        0.50380    0.21280    0.65580    1.000
    O4       O        0.99620    0.55700    0.34420    1.000
