# CIF file generated by openbabel 3.1.0, see https://openbabel.org
data_I
_chemical_name_common 'TEDSIG_clean'
_cell_length_a 10.1841
_cell_length_b 12.0386
_cell_length_c 18.83
_cell_angle_alpha 90
_cell_angle_beta 99.159
_cell_angle_gamma 90
_space_group_name_H-M_alt 'P 1'
_space_group_name_Hall 'P 1'
loop_
    _symmetry_equiv_pos_as_xyz
    x,y,z
loop_
    _atom_site_label
    _atom_site_type_symbol
    _atom_site_fract_x
    _atom_site_fract_y
    _atom_site_fract_z
    _atom_site_occupancy
    Zn1      Zn       0.87939    0.89921    0.67354    1.000
    Zn2      Zn       0.62061    0.39921    0.82646    1.000
    Zn3      Zn       0.12061    0.10079    0.32646    1.000
    Zn4      Zn       0.37939    0.60079    0.17354    1.000
    H1       H        0.29120    0.19660    0.73850    1.000
    H2       H        0.06750    0.11550    0.55050    1.000
    H3       H        0.37820    0.32180    0.55460    1.000
    H4       H        0.63800    0.98100    0.91600    1.000
    H5       H        0.52650    0.89010    0.90310    1.000
    H6       H        0.59590    0.77520    0.66720    1.000
    H7       H        0.48790    0.10190    0.96240    1.000
    H8       H        0.37950    0.00840    0.95150    1.000
    H9       H        0.39850    0.00890    0.81940    1.000
    H10      H        0.51480    0.09580    0.83060    1.000
    H11      H        0.43520    0.82550    0.74490    1.000
    H12      H        0.84080    0.07910    0.76700    1.000
    H13      H        0.75300    0.09970    0.82690    1.000
    H14      H        0.71250    0.15250    0.75050    1.000
    H15      H        0.20880    0.69660    0.76150    1.000
    H16      H        0.43250    0.61550    0.94950    1.000
    H17      H        0.12180    0.82180    0.94540    1.000
    H18      H        0.86200    0.48100    0.58400    1.000
    H19      H        0.97350    0.39010    0.59690    1.000
    H20      H        0.90410    0.27520    0.83280    1.000
    H21      H        0.01210    0.60190    0.53760    1.000
    H22      H        0.12050    0.50840    0.54850    1.000
    H23      H        0.10150    0.50890    0.68060    1.000
    H24      H        0.98520    0.59580    0.66940    1.000
    H25      H        0.06480    0.32550    0.75510    1.000
    H26      H        0.65920    0.57910    0.73300    1.000
    H27      H        0.74700    0.59970    0.67310    1.000
    H28      H        0.78750    0.65250    0.74950    1.000
    H29      H        0.70880    0.80340    0.26150    1.000
    H30      H        0.93250    0.88450    0.44950    1.000
    H31      H        0.62180    0.67820    0.44540    1.000
    H32      H        0.36200    0.01900    0.08400    1.000
    H33      H        0.47350    0.10990    0.09690    1.000
    H34      H        0.40410    0.22480    0.33280    1.000
    H35      H        0.51210    0.89810    0.03760    1.000
    H36      H        0.62050    0.99160    0.04850    1.000
    H37      H        0.60150    0.99110    0.18060    1.000
    H38      H        0.48520    0.90420    0.16940    1.000
    H39      H        0.56480    0.17450    0.25510    1.000
    H40      H        0.15920    0.92090    0.23300    1.000
    H41      H        0.24700    0.90030    0.17310    1.000
    H42      H        0.28750    0.84750    0.24950    1.000
    H43      H        0.79120    0.30340    0.23850    1.000
    H44      H        0.56750    0.38450    0.05050    1.000
    H45      H        0.87820    0.17820    0.05460    1.000
    H46      H        0.13800    0.51900    0.41600    1.000
    H47      H        0.02650    0.60990    0.40310    1.000
    H48      H        0.09590    0.72480    0.16720    1.000
    H49      H        0.98790    0.39810    0.46240    1.000
    H50      H        0.87950    0.49160    0.45150    1.000
    H51      H        0.89850    0.49110    0.31940    1.000
    H52      H        0.01480    0.40420    0.33060    1.000
    H53      H        0.93520    0.67450    0.24490    1.000
    H54      H        0.34080    0.42090    0.26700    1.000
    H55      H        0.25300    0.40030    0.32690    1.000
    H56      H        0.21250    0.34750    0.25050    1.000
    C1       C        0.07480    0.08010    0.69200    1.000
    C2       C        0.47710    0.32360    0.69420    1.000
    C3       C        0.27260    0.20330    0.68873    1.000
    C4       C        0.13860    0.15430    0.57618    1.000
    C5       C        0.22040    0.21800    0.53975    1.000
    C6       C        0.16270    0.14840    0.65113    1.000
    C7       C        0.35510    0.26790    0.65329    1.000
    C8       C        0.67260    0.98940    0.75261    1.000
    C9       C        0.32610    0.27640    0.57881    1.000
    C10      C        0.54270    0.96950    0.90413    1.000
    C11      C        0.70440    0.28090    0.95827    1.000
    C12      C        0.60120    0.83690    0.69716    1.000
    C13      C        0.47440    0.02210    0.96264    1.000
    C14      C        0.49440    0.01710    0.83049    1.000
    C15      C        0.51200    0.86450    0.73982    1.000
    C16      C        0.75160    0.08880    0.77630    1.000
    C17      C        0.42520    0.58010    0.80800    1.000
    C18      C        0.02290    0.82360    0.80580    1.000
    C19      C        0.22740    0.70330    0.81127    1.000
    C20      C        0.36140    0.65430    0.92382    1.000
    C21      C        0.27960    0.71800    0.96025    1.000
    C22      C        0.33730    0.64840    0.84887    1.000
    C23      C        0.14490    0.76790    0.84671    1.000
    C24      C        0.82740    0.48940    0.74739    1.000
    C25      C        0.17390    0.77640    0.92119    1.000
    C26      C        0.95730    0.46950    0.59587    1.000
    C27      C        0.79560    0.78090    0.54173    1.000
    C28      C        0.89880    0.33690    0.80284    1.000
    C29      C        0.02560    0.52210    0.53736    1.000
    C30      C        0.00560    0.51710    0.66951    1.000
    C31      C        0.98800    0.36450    0.76018    1.000
    C32      C        0.74840    0.58880    0.72370    1.000
    C33      C        0.92520    0.91990    0.30800    1.000
    C34      C        0.52290    0.67640    0.30580    1.000
    C35      C        0.72740    0.79670    0.31127    1.000
    C36      C        0.86140    0.84570    0.42382    1.000
    C37      C        0.77960    0.78200    0.46025    1.000
    C38      C        0.83730    0.85160    0.34887    1.000
    C39      C        0.64490    0.73210    0.34671    1.000
    C40      C        0.32740    0.01060    0.24739    1.000
    C41      C        0.67390    0.72360    0.42119    1.000
    C42      C        0.45730    0.03050    0.09587    1.000
    C43      C        0.29560    0.71910    0.04173    1.000
    C44      C        0.39880    0.16310    0.30284    1.000
    C45      C        0.52560    0.97790    0.03736    1.000
    C46      C        0.50560    0.98290    0.16951    1.000
    C47      C        0.48800    0.13550    0.26018    1.000
    C48      C        0.24840    0.91120    0.22370    1.000
    C49      C        0.57480    0.41990    0.19200    1.000
    C50      C        0.97710    0.17640    0.19420    1.000
    C51      C        0.77260    0.29670    0.18873    1.000
    C52      C        0.63860    0.34570    0.07618    1.000
    C53      C        0.72040    0.28200    0.03975    1.000
    C54      C        0.66270    0.35160    0.15113    1.000
    C55      C        0.85510    0.23210    0.15329    1.000
    C56      C        0.17260    0.51060    0.25261    1.000
    C57      C        0.82610    0.22360    0.07881    1.000
    C58      C        0.04270    0.53050    0.40413    1.000
    C59      C        0.20440    0.21910    0.45827    1.000
    C60      C        0.10120    0.66310    0.19716    1.000
    C61      C        0.97440    0.47790    0.46264    1.000
    C62      C        0.99440    0.48290    0.33049    1.000
    C63      C        0.01200    0.63550    0.23982    1.000
    C64      C        0.25160    0.41120    0.27630    1.000
    N1       N        0.70140    0.91477    0.70502    1.000
    N2       N        0.55630    0.96144    0.77440    1.000
    N3       N        0.79860    0.41477    0.79498    1.000
    N4       N        0.94370    0.46144    0.72560    1.000
    N5       N        0.29860    0.08523    0.29498    1.000
    N6       N        0.44370    0.03856    0.22560    1.000
    N7       N        0.20140    0.58523    0.20502    1.000
    N8       N        0.05630    0.53856    0.27440    1.000
    O1       O        0.97245    0.03771    0.65449    1.000
    O2       O        0.49404    0.30815    0.76309    1.000
    O3       O        0.62515    0.35353    0.92683    1.000
    O4       O        0.10710    0.06895    0.75795    1.000
    O5       O        0.76930    0.21570    0.92838    1.000
    O6       O        0.05125    0.12293    0.16150    1.000
    O7       O        0.52755    0.53771    0.84551    1.000
    O8       O        0.00596    0.80815    0.73691    1.000
    O9       O        0.87485    0.85353    0.57317    1.000
    O10      O        0.39290    0.56895    0.74205    1.000
    O11      O        0.73070    0.71570    0.57162    1.000
    O12      O        0.44875    0.62293    0.33850    1.000
    O13      O        0.02755    0.96229    0.34551    1.000
    O14      O        0.50596    0.69185    0.23691    1.000
    O15      O        0.37485    0.64647    0.07317    1.000
    O16      O        0.89290    0.93105    0.24205    1.000
    O17      O        0.23070    0.78430    0.07162    1.000
    O18      O        0.94875    0.87707    0.83850    1.000
    O19      O        0.47245    0.46229    0.15449    1.000
    O20      O        0.99404    0.19185    0.26309    1.000
    O21      O        0.12515    0.14647    0.42683    1.000
    O22      O        0.60710    0.43105    0.25795    1.000
    O23      O        0.26930    0.28430    0.42838    1.000
    O24      O        0.55125    0.37707    0.66150    1.000
