# CIF file generated by openbabel 3.1.0, see https://openbabel.org
data_I
_chemical_name_common 'YAFDAM_clean'
_cell_length_a 10.0597
_cell_length_b 10.7824
_cell_length_c 13.7261
_cell_angle_alpha 79.141
_cell_angle_beta 78.801
_cell_angle_gamma 86.578
_space_group_name_H-M_alt 'P 1'
_space_group_name_Hall 'P 1'
loop_
    _symmetry_equiv_pos_as_xyz
    x,y,z
loop_
    _atom_site_label
    _atom_site_type_symbol
    _atom_site_fract_x
    _atom_site_fract_y
    _atom_site_fract_z
    _atom_site_occupancy
    Ho1      Ho       0.31943    0.92216    0.79566    1.000
    Ho2      Ho       0.68057    0.07784    0.20434    1.000
    Co1      Co       0.00000    0.50000    0.00000    1.000
    H1       H        0.28070    0.35930    0.86850    1.000
    H2       H        0.34710    0.32700    0.57540    1.000
    H3       H        0.32910    0.67040    0.65150    1.000
    H4       H        0.35480    0.45060    0.24000    1.000
    H5       H        0.36660    0.56900    0.08240    1.000
    H6       H        0.35470    0.87950    0.18500    1.000
    H7       H        0.34640    0.77400    0.34750    1.000
    H8       H        0.82260    0.91300    0.78460    1.000
    H9       H        0.69300    0.85600    0.53770    1.000
    H10      H        0.09140    0.84210    0.54320    1.000
    H11      H        0.00800    0.47720    0.37060    1.000
    H12      H        0.01480    0.40710    0.22200    1.000
    H13      H        0.03420    0.75150    0.07050    1.000
    H14      H        0.01690    0.83210    0.21560    1.000
    H15      H        0.38040    0.64590    0.48040    1.000
    H16      H        0.88100    0.84710    0.38240    1.000
    H17      H        0.71930    0.64070    0.13150    1.000
    H18      H        0.65290    0.67300    0.42460    1.000
    H19      H        0.67090    0.32960    0.34850    1.000
    H20      H        0.64520    0.54940    0.76000    1.000
    H21      H        0.63340    0.43100    0.91760    1.000
    H22      H        0.64530    0.12050    0.81500    1.000
    H23      H        0.65360    0.22600    0.65250    1.000
    H24      H        0.17740    0.08700    0.21540    1.000
    H25      H        0.30700    0.14400    0.46230    1.000
    H26      H        0.90860    0.15790    0.45680    1.000
    H27      H        0.99200    0.52280    0.62940    1.000
    H28      H        0.98520    0.59290    0.77800    1.000
    H29      H        0.96580    0.24850    0.92950    1.000
    H30      H        0.98310    0.16790    0.78440    1.000
    H31      H        0.61960    0.35410    0.51960    1.000
    H32      H        0.11900    0.15290    0.61760    1.000
    C1       C        0.30060    0.52810    0.77210    1.000
    C2       C        0.29650    0.39680    0.80070    1.000
    C3       C        0.31660    0.32300    0.72540    1.000
    C4       C        0.33530    0.37770    0.62440    1.000
    C5       C        0.33640    0.50870    0.59590    1.000
    C6       C        0.32300    0.58310    0.67020    1.000
    C7       C        0.31250    0.18230    0.75240    1.000
    C8       C        0.26920    0.60870    0.85190    1.000
    C9       C        0.33200    0.51610    0.41650    1.000
    C10      C        0.34910    0.59880    0.31440    1.000
    C11      C        0.35520    0.53820    0.23110    1.000
    C12      C        0.36180    0.61020    0.13680    1.000
    C13      C        0.35540    0.79170    0.19680    1.000
    C14      C        0.34970    0.72920    0.29540    1.000
    C15      C        0.09340    0.89180    0.71890    1.000
    C16      C        0.97400    0.88100    0.67040    1.000
    C17      C        0.84070    0.89650    0.71910    1.000
    C18      C        0.73670    0.88750    0.67000    1.000
    C19      C        0.76380    0.86000    0.57150    1.000
    C20      C        0.89490    0.83940    0.52560    1.000
    C21      C        0.00210    0.85260    0.57500    1.000
    C22      C        0.59080    0.90290    0.71680    1.000
    C23      C        0.00610    0.70580    0.40940    1.000
    C24      C        0.00850    0.66430    0.31030    1.000
    C25      C        0.01020    0.53490    0.31070    1.000
    C26      C        0.01530    0.49370    0.22060    1.000
    C27      C        0.02520    0.69610    0.13200    1.000
    C28      C        0.01690    0.74510    0.21870    1.000
    C29      C        0.69940    0.47190    0.22790    1.000
    C30      C        0.70350    0.60320    0.19930    1.000
    C31      C        0.68340    0.67700    0.27460    1.000
    C32      C        0.66470    0.62230    0.37560    1.000
    C33      C        0.66360    0.49130    0.40410    1.000
    C34      C        0.67700    0.41690    0.32980    1.000
    C35      C        0.68750    0.81770    0.24760    1.000
    C36      C        0.73080    0.39130    0.14810    1.000
    C37      C        0.66800    0.48390    0.58350    1.000
    C38      C        0.65090    0.40120    0.68560    1.000
    C39      C        0.64480    0.46180    0.76890    1.000
    C40      C        0.63820    0.38980    0.86320    1.000
    C41      C        0.64460    0.20830    0.80320    1.000
    C42      C        0.65030    0.27080    0.70460    1.000
    C43      C        0.90660    0.10820    0.28110    1.000
    C44      C        0.02600    0.11900    0.32960    1.000
    C45      C        0.15930    0.10350    0.28090    1.000
    C46      C        0.26330    0.11250    0.33000    1.000
    C47      C        0.23620    0.14000    0.42850    1.000
    C48      C        0.10510    0.16060    0.47440    1.000
    C49      C        0.99790    0.14740    0.42500    1.000
    C50      C        0.40920    0.09710    0.28320    1.000
    C51      C        0.99390    0.29420    0.59060    1.000
    C52      C        0.99150    0.33570    0.68970    1.000
    C53      C        0.98980    0.46510    0.68930    1.000
    C54      C        0.98470    0.50630    0.77940    1.000
    C55      C        0.97480    0.30390    0.86800    1.000
    C56      C        0.98310    0.25490    0.78130    1.000
    N1       N        0.35380    0.56910    0.49450    1.000
    N2       N        0.36170    0.73580    0.11870    1.000
    N3       N        0.92010    0.80520    0.42920    1.000
    N4       N        0.02080    0.57040    0.13250    1.000
    N5       N        0.64620    0.43090    0.50550    1.000
    N6       N        0.63830    0.26420    0.88130    1.000
    N7       N        0.07990    0.19480    0.57080    1.000
    N8       N        0.97920    0.42960    0.86750    1.000
    O1       O        0.19390    0.56790    0.93340    1.000
    O2       O        0.32460    0.71660    0.83050    1.000
    O3       O        0.29360    0.11770    0.68950    1.000
    O4       O        0.32880    0.12540    0.83850    1.000
    O5       O        0.30580    0.40580    0.42510    1.000
    O6       O        0.20980    0.88350    0.66910    1.000
    O7       O        0.07620    0.90790    0.81070    1.000
    O8       O        0.55640    0.90330    0.81110    1.000
    O9       O        0.50070    0.91610    0.66450    1.000
    O10      O        0.07740    0.65160    0.46720    1.000
    O11      O        0.80610    0.43210    0.06660    1.000
    O12      O        0.67540    0.28340    0.16950    1.000
    O13      O        0.70640    0.88230    0.31050    1.000
    O14      O        0.67120    0.87460    0.16150    1.000
    O15      O        0.69420    0.59420    0.57490    1.000
    O16      O        0.79020    0.11650    0.33090    1.000
    O17      O        0.92380    0.09210    0.18930    1.000
    O18      O        0.44360    0.09670    0.18890    1.000
    O19      O        0.49930    0.08390    0.33550    1.000
    O20      O        0.92260    0.34840    0.53280    1.000
