# CIF file generated by openbabel 3.1.0, see https://openbabel.org
data_I
_chemical_name_common 'image0'
_cell_length_a 7.6827
_cell_length_b 7.7269
_cell_length_c 18.092
_cell_angle_alpha 90
_cell_angle_beta 94.443
_cell_angle_gamma 90
_space_group_name_H-M_alt 'P 1'
_space_group_name_Hall 'P 1'
loop_
    _symmetry_equiv_pos_as_xyz
    x,y,z
loop_
    _atom_site_label
    _atom_site_type_symbol
    _atom_site_fract_x
    _atom_site_fract_y
    _atom_site_fract_z
    _atom_site_occupancy
    Fe1      Fe       0.11372    0.58491    0.36100    1.000
    Fe2      Fe       0.77657    0.33346    0.31126    1.000
    P1       P        0.94077    0.94720    0.30810    1.000
    H1       H        0.83120    0.88320    0.29850    1.000
    O1       O        0.05990    0.83740    0.36021    1.000
    O2       O        0.27800    0.37040    0.37566    1.000
    O3       O        0.90220    0.47140    0.41036    1.000
    O4       O        0.01970    0.97070    0.23357    1.000
    O5       O        0.81650    0.37850    0.51862    1.000
    O6       O        0.33910    0.65040    0.29279    1.000
    O7       O        0.89680    0.11660    0.34358    1.000
    O8       O        0.54720    0.27920    0.36289    1.000
    O9       O        0.60570    0.54290    0.27504    1.000
    C1       C        0.42540    0.38310    0.35093    1.000
    C2       C        0.91700    0.45470    0.48000    1.000
    C3       C        0.45990    0.54030    0.30099    1.000
    Fe3      Fe       0.88628    0.08491    0.13900    1.000
    Fe4      Fe       0.22343    0.83346    0.18874    1.000
    P2       P        0.05923    0.44720    0.19190    1.000
    H2       H        0.16880    0.38320    0.20150    1.000
    O10      O        0.94010    0.33740    0.13979    1.000
    O11      O        0.72200    0.87040    0.12434    1.000
    O12      O        0.09780    0.97140    0.08964    1.000
    O13      O        0.98030    0.47070    0.26643    1.000
    O14      O        0.18350    0.87850    0.98138    1.000
    O15      O        0.66090    0.15040    0.20721    1.000
    O16      O        0.10320    0.61660    0.15642    1.000
    O17      O        0.45280    0.77920    0.13711    1.000
    O18      O        0.39430    0.04290    0.22496    1.000
    C4       C        0.57460    0.88310    0.14907    1.000
    C5       C        0.08300    0.95470    0.02000    1.000
    C6       C        0.54010    0.04030    0.19901    1.000
    Fe5      Fe       0.88628    0.41509    0.63900    1.000
    Fe6      Fe       0.22343    0.66654    0.68874    1.000
    P3       P        0.05923    0.05280    0.69190    1.000
    H3       H        0.16880    0.11680    0.70150    1.000
    O19      O        0.94010    0.16260    0.63979    1.000
    O20      O        0.72200    0.62960    0.62434    1.000
    O21      O        0.09780    0.52860    0.58964    1.000
    O22      O        0.98030    0.02930    0.76643    1.000
    O23      O        0.18350    0.62150    0.48138    1.000
    O24      O        0.66090    0.34960    0.70721    1.000
    O25      O        0.10320    0.88340    0.65642    1.000
    O26      O        0.45280    0.72080    0.63711    1.000
    O27      O        0.39430    0.45710    0.72496    1.000
    C7       C        0.57460    0.61690    0.64907    1.000
    C8       C        0.08300    0.54530    0.52000    1.000
    C9       C        0.54010    0.45970    0.69901    1.000
    Fe7      Fe       0.11372    0.91509    0.86100    1.000
    Fe8      Fe       0.77657    0.16654    0.81126    1.000
    P4       P        0.94077    0.55280    0.80810    1.000
    H4       H        0.83120    0.61680    0.79850    1.000
    O28      O        0.05990    0.66260    0.86021    1.000
    O29      O        0.27800    0.12960    0.87566    1.000
    O30      O        0.90220    0.02860    0.91036    1.000
    O31      O        0.01970    0.52930    0.73357    1.000
    O32      O        0.81650    0.12150    0.01862    1.000
    O33      O        0.33910    0.84960    0.79279    1.000
    O34      O        0.89680    0.38340    0.84358    1.000
    O35      O        0.54720    0.22080    0.86289    1.000
    O36      O        0.60570    0.95710    0.77504    1.000
    C10      C        0.42540    0.11690    0.85093    1.000
    C11      C        0.91700    0.04530    0.98000    1.000
    C12      C        0.45990    0.95970    0.80099    1.000
