# CIF file generated by openbabel 3.1.0, see https://openbabel.org
data_I
_chemical_name_common 'image0'
_cell_length_a 18.3171
_cell_length_b 8.7602
_cell_length_c 19.4272
_cell_angle_alpha 90
_cell_angle_beta 128.945
_cell_angle_gamma 90
_space_group_name_H-M_alt 'P 1'
_space_group_name_Hall 'P 1'
loop_
    _symmetry_equiv_pos_as_xyz
    x,y,z
loop_
    _atom_site_label
    _atom_site_type_symbol
    _atom_site_fract_x
    _atom_site_fract_y
    _atom_site_fract_z
    _atom_site_occupancy
    In1      In       0.17404    0.47049    0.65943    1.000
    O1       O        0.10930    0.30670    0.80180    1.000
    O2       O        0.12330    0.27610    0.68090    1.000
    O3       O        0.08040    0.05520    0.72830    1.000
    H1       H        0.11610    0.97770    0.74630    1.000
    O4       O        0.24470    0.15770    0.83420    1.000
    O5       O        0.79780    0.83320    0.70990    1.000
    O6       O        0.91110    0.65620    0.72170    1.000
    O7       O        0.74740    0.66260    0.58210    1.000
    H2       H        0.70600    0.73240    0.55860    1.000
    O8       O        0.77700    0.54820    0.71350    1.000
    O9       O        0.05130    0.61000    0.58710    1.000
    O10      O        0.94390    0.76030    0.59940    1.000
    H3       H        0.98150    0.76370    0.65560    1.000
    O11      O        0.95150    0.47410    0.61620    1.000
    O12      O        0.87520    0.60170    0.47000    1.000
    P1       P        0.14210    0.20520    0.76183    1.000
    P2       P        0.80973    0.67440    0.68527    1.000
    P3       P        0.95745    0.60320    0.56851    1.000
    In2      In       0.67404    0.97049    0.65943    1.000
    O13      O        0.60930    0.80670    0.80180    1.000
    O14      O        0.62330    0.77610    0.68090    1.000
    O15      O        0.58040    0.55520    0.72830    1.000
    H4       H        0.61610    0.47770    0.74630    1.000
    O16      O        0.74470    0.65770    0.83420    1.000
    O17      O        0.29780    0.33320    0.70990    1.000
    O18      O        0.41110    0.15620    0.72170    1.000
    O19      O        0.24740    0.16260    0.58210    1.000
    H5       H        0.20600    0.23240    0.55860    1.000
    O20      O        0.27700    0.04820    0.71350    1.000
    O21      O        0.55130    0.11000    0.58710    1.000
    O22      O        0.44390    0.26030    0.59940    1.000
    H6       H        0.48150    0.26370    0.65560    1.000
    O23      O        0.45150    0.97410    0.61620    1.000
    O24      O        0.37520    0.10170    0.47000    1.000
    P4       P        0.64210    0.70520    0.76183    1.000
    P5       P        0.30973    0.17440    0.68527    1.000
    P6       P        0.45745    0.10320    0.56851    1.000
    In3      In       0.82596    0.47049    0.84057    1.000
    O25      O        0.89070    0.30670    0.69820    1.000
    O26      O        0.87670    0.27610    0.81910    1.000
    O27      O        0.91960    0.05520    0.77170    1.000
    H7       H        0.88390    0.97770    0.75370    1.000
    O28      O        0.75530    0.15770    0.66580    1.000
    O29      O        0.20220    0.83320    0.79010    1.000
    O30      O        0.08890    0.65620    0.77830    1.000
    O31      O        0.25260    0.66260    0.91790    1.000
    H8       H        0.29400    0.73240    0.94140    1.000
    O32      O        0.22300    0.54820    0.78650    1.000
    O33      O        0.94870    0.61000    0.91290    1.000
    O34      O        0.05610    0.76030    0.90060    1.000
    H9       H        0.01850    0.76370    0.84440    1.000
    O35      O        0.04850    0.47410    0.88380    1.000
    O36      O        0.12480    0.60170    0.03000    1.000
    P7       P        0.85790    0.20520    0.73817    1.000
    P8       P        0.19027    0.67440    0.81473    1.000
    P9       P        0.04255    0.60320    0.93149    1.000
    In4      In       0.32596    0.97049    0.84057    1.000
    O37      O        0.39070    0.80670    0.69820    1.000
    O38      O        0.37670    0.77610    0.81910    1.000
    O39      O        0.41960    0.55520    0.77170    1.000
    H10      H        0.38390    0.47770    0.75370    1.000
    O40      O        0.25530    0.65770    0.66580    1.000
    O41      O        0.70220    0.33320    0.79010    1.000
    O42      O        0.58890    0.15620    0.77830    1.000
    O43      O        0.75260    0.16260    0.91790    1.000
    H11      H        0.79400    0.23240    0.94140    1.000
    O44      O        0.72300    0.04820    0.78650    1.000
    O45      O        0.44870    0.11000    0.91290    1.000
    O46      O        0.55610    0.26030    0.90060    1.000
    H12      H        0.51850    0.26370    0.84440    1.000
    O47      O        0.54850    0.97410    0.88380    1.000
    O48      O        0.62480    0.10170    0.03000    1.000
    P10      P        0.35790    0.70520    0.73817    1.000
    P11      P        0.69027    0.17440    0.81473    1.000
    P12      P        0.54255    0.10320    0.93149    1.000
    In5      In       0.82596    0.52951    0.34057    1.000
    O49      O        0.89070    0.69330    0.19820    1.000
    O50      O        0.87670    0.72390    0.31910    1.000
    O51      O        0.91960    0.94480    0.27170    1.000
    H13      H        0.88390    0.02230    0.25370    1.000
    O52      O        0.75530    0.84230    0.16580    1.000
    O53      O        0.20220    0.16680    0.29010    1.000
    O54      O        0.08890    0.34380    0.27830    1.000
    O55      O        0.25260    0.33740    0.41790    1.000
    H14      H        0.29400    0.26760    0.44140    1.000
    O56      O        0.22300    0.45180    0.28650    1.000
    O57      O        0.94870    0.39000    0.41290    1.000
    O58      O        0.05610    0.23970    0.40060    1.000
    H15      H        0.01850    0.23630    0.34440    1.000
    O59      O        0.04850    0.52590    0.38380    1.000
    O60      O        0.12480    0.39830    0.53000    1.000
    P13      P        0.85790    0.79480    0.23817    1.000
    P14      P        0.19027    0.32560    0.31473    1.000
    P15      P        0.04255    0.39680    0.43149    1.000
    In6      In       0.32596    0.02951    0.34057    1.000
    O61      O        0.39070    0.19330    0.19820    1.000
    O62      O        0.37670    0.22390    0.31910    1.000
    O63      O        0.41960    0.44480    0.27170    1.000
    H16      H        0.38390    0.52230    0.25370    1.000
    O64      O        0.25530    0.34230    0.16580    1.000
    O65      O        0.70220    0.66680    0.29010    1.000
    O66      O        0.58890    0.84380    0.27830    1.000
    O67      O        0.75260    0.83740    0.41790    1.000
    H17      H        0.79400    0.76760    0.44140    1.000
    O68      O        0.72300    0.95180    0.28650    1.000
    O69      O        0.44870    0.89000    0.41290    1.000
    O70      O        0.55610    0.73970    0.40060    1.000
    H18      H        0.51850    0.73630    0.34440    1.000
    O71      O        0.54850    0.02590    0.38380    1.000
    O72      O        0.62480    0.89830    0.53000    1.000
    P16      P        0.35790    0.29480    0.23817    1.000
    P17      P        0.69027    0.82560    0.31473    1.000
    P18      P        0.54255    0.89680    0.43149    1.000
    In7      In       0.17404    0.52951    0.15943    1.000
    O73      O        0.10930    0.69330    0.30180    1.000
    O74      O        0.12330    0.72390    0.18090    1.000
    O75      O        0.08040    0.94480    0.22830    1.000
    H19      H        0.11610    0.02230    0.24630    1.000
    O76      O        0.24470    0.84230    0.33420    1.000
    O77      O        0.79780    0.16680    0.20990    1.000
    O78      O        0.91110    0.34380    0.22170    1.000
    O79      O        0.74740    0.33740    0.08210    1.000
    H20      H        0.70600    0.26760    0.05860    1.000
    O80      O        0.77700    0.45180    0.21350    1.000
    O81      O        0.05130    0.39000    0.08710    1.000
    O82      O        0.94390    0.23970    0.09940    1.000
    H21      H        0.98150    0.23630    0.15560    1.000
    O83      O        0.95150    0.52590    0.11620    1.000
    O84      O        0.87520    0.39830    0.97000    1.000
    P19      P        0.14210    0.79480    0.26183    1.000
    P20      P        0.80973    0.32560    0.18527    1.000
    P21      P        0.95745    0.39680    0.06851    1.000
    In8      In       0.67404    0.02951    0.15943    1.000
    O85      O        0.60930    0.19330    0.30180    1.000
    O86      O        0.62330    0.22390    0.18090    1.000
    O87      O        0.58040    0.44480    0.22830    1.000
    H22      H        0.61610    0.52230    0.24630    1.000
    O88      O        0.74470    0.34230    0.33420    1.000
    O89      O        0.29780    0.66680    0.20990    1.000
    O90      O        0.41110    0.84380    0.22170    1.000
    O91      O        0.24740    0.83740    0.08210    1.000
    H23      H        0.20600    0.76760    0.05860    1.000
    O92      O        0.27700    0.95180    0.21350    1.000
    O93      O        0.55130    0.89000    0.08710    1.000
    O94      O        0.44390    0.73970    0.09940    1.000
    H24      H        0.48150    0.73630    0.15560    1.000
    O95      O        0.45150    0.02590    0.11620    1.000
    O96      O        0.37520    0.89830    0.97000    1.000
    P22      P        0.64210    0.29480    0.26183    1.000
    P23      P        0.30973    0.82560    0.18527    1.000
    P24      P        0.45745    0.89680    0.06851    1.000
    In9      In       0.00000    0.46468    0.75000    1.000
    In10     In       0.50000    0.96468    0.75000    1.000
    In11     In       0.00000    0.53532    0.25000    1.000
    In12     In       0.50000    0.03532    0.25000    1.000
