# CIF file generated by openbabel 3.1.0, see https://openbabel.org
data_I
_chemical_name_common 'image0'
_cell_length_a 33.152
_cell_length_b 14.4302
_cell_length_c 14.0799
_cell_angle_alpha 90
_cell_angle_beta 90
_cell_angle_gamma 90
_space_group_name_H-M_alt 'P 1'
_space_group_name_Hall 'P 1'
loop_
    _symmetry_equiv_pos_as_xyz
    x,y,z
loop_
    _atom_site_label
    _atom_site_type_symbol
    _atom_site_fract_x
    _atom_site_fract_y
    _atom_site_fract_z
    _atom_site_occupancy
    O1       O        0.28220    0.64720    0.74630    1.000
    O2       O        0.65210    0.35240    0.58310    1.000
    O3       O        0.26891    0.34930    0.07450    1.000
    O4       O        0.61050    0.34410    0.45860    1.000
    C1       C        0.44471    0.49150    0.97020    1.000
    O5       O        0.23962    0.35300    0.93060    1.000
    C2       C        0.32320    0.55630    0.84840    1.000
    C3       C        0.44784    0.47830    0.86990    1.000
    H1       H        0.42400    0.46820    0.83400    1.000
    C4       C        0.52041    0.49570    0.87550    1.000
    C5       C        0.29891    0.44020    0.95420    1.000
    C6       C        0.36088    0.55180    0.89140    1.000
    H2       H        0.38230    0.58940    0.86840    1.000
    C7       C        0.62159    0.37520    0.53790    1.000
    C8       C        0.33635    0.43860    0.99930    1.000
    H3       H        0.34040    0.39940    0.05270    1.000
    C9       C        0.59328    0.44440    0.58240    1.000
    C10      C        0.36743    0.49320    0.96720    1.000
    O6       O        0.34921    0.65080    0.72800    1.000
    C11      C        0.40683    0.49250    0.01800    1.000
    C12      C        0.48096    0.49870    0.02450    1.000
    C13      C        0.31754    0.62400    0.76720    1.000
    C14      C        0.59311    0.50550    0.88290    1.000
    H4       H        0.61830    0.50650    0.85070    1.000
    O7       O        0.48405    0.65380    0.55550    1.000
    C15      C        0.29228    0.49920    0.87900    1.000
    H5       H        0.26670    0.50070    0.84840    1.000
    C16      C        0.55826    0.50200    0.82940    1.000
    C17      C        0.26587    0.37480    0.98900    1.000
    C18      C        0.48367    0.48000    0.82490    1.000
    H6       H        0.48460    0.47040    0.75820    1.000
    C19      C        0.59043    0.44630    0.68070    1.000
    H7       H        0.60780    0.40980    0.71930    1.000
    C20      C        0.56183    0.50250    0.71990    1.000
    C21      C        0.54130    0.55930    0.57040    1.000
    C22      C        0.53780    0.55950    0.66830    1.000
    H8       H        0.51880    0.59890    0.69880    1.000
    C23      C        0.51430    0.62020    0.51390    1.000
    O8       O        0.52310    0.63330    0.42760    1.000
    C24      C        0.56890    0.49960    0.52740    1.000
    H9       H        0.57080    0.49710    0.46010    1.000
    C25      C        0.19760    0.29310    0.70740    1.000
    C26      C        0.19140    0.28800    0.53000    1.000
    C27      C        0.19100    0.14720    0.63100    1.000
    C28      C        0.55400    0.17400    0.28100    1.000
    O9       O        0.21780    0.35280    0.24630    1.000
    O10      O        0.84790    0.64760    0.08310    1.000
    O11      O        0.23109    0.65070    0.57450    1.000
    O12      O        0.88950    0.65590    0.95860    1.000
    C29      C        0.05529    0.50850    0.47020    1.000
    O13      O        0.26038    0.64700    0.43060    1.000
    C30      C        0.17680    0.44370    0.34840    1.000
    C31      C        0.05216    0.52170    0.36990    1.000
    H10      H        0.07600    0.53180    0.33400    1.000
    C32      C        0.97959    0.50430    0.37550    1.000
    C33      C        0.20109    0.55980    0.45420    1.000
    C34      C        0.13912    0.44820    0.39140    1.000
    H11      H        0.11770    0.41060    0.36840    1.000
    C35      C        0.87841    0.62480    0.03790    1.000
    C36      C        0.16365    0.56140    0.49930    1.000
    H12      H        0.15960    0.60060    0.55270    1.000
    C37      C        0.90672    0.55560    0.08240    1.000
    C38      C        0.13257    0.50680    0.46720    1.000
    O14      O        0.15079    0.34920    0.22800    1.000
    C39      C        0.09317    0.50750    0.51800    1.000
    C40      C        0.01904    0.50130    0.52450    1.000
    C41      C        0.18246    0.37600    0.26720    1.000
    C42      C        0.90689    0.49450    0.38290    1.000
    H13      H        0.88170    0.49350    0.35070    1.000
    O15      O        0.01595    0.34620    0.05550    1.000
    C43      C        0.20772    0.50080    0.37900    1.000
    H14      H        0.23330    0.49930    0.34840    1.000
    C44      C        0.94174    0.49800    0.32940    1.000
    C45      C        0.23413    0.62520    0.48900    1.000
    C46      C        0.01633    0.52000    0.32490    1.000
    H15      H        0.01540    0.52960    0.25820    1.000
    C47      C        0.90957    0.55370    0.18070    1.000
    H16      H        0.89220    0.59020    0.21930    1.000
    C48      C        0.93817    0.49750    0.21990    1.000
    C49      C        0.95870    0.44070    0.07040    1.000
    C50      C        0.96220    0.44050    0.16830    1.000
    H17      H        0.98120    0.40110    0.19880    1.000
    C51      C        0.98570    0.37980    0.01390    1.000
    O16      O        0.97690    0.36670    0.92760    1.000
    C52      C        0.93110    0.50040    0.02740    1.000
    H18      H        0.92920    0.50290    0.96010    1.000
    C53      C        0.30240    0.70690    0.20740    1.000
    C54      C        0.30860    0.71200    0.03000    1.000
    C55      C        0.30900    0.85280    0.13100    1.000
    C56      C        0.94600    0.82600    0.78100    1.000
    O17      O        0.71780    0.14720    0.25370    1.000
    O18      O        0.34790    0.85240    0.41690    1.000
    O19      O        0.73109    0.84930    0.92550    1.000
    O20      O        0.38950    0.84410    0.54140    1.000
    C57      C        0.55529    0.99150    0.02980    1.000
    O21      O        0.76038    0.85300    0.06940    1.000
    C58      C        0.67680    0.05630    0.15160    1.000
    C59      C        0.55216    0.97830    0.13010    1.000
    H19      H        0.57600    0.96820    0.16600    1.000
    C60      C        0.47959    0.99570    0.12450    1.000
    C61      C        0.70109    0.94020    0.04580    1.000
    C62      C        0.63912    0.05180    0.10860    1.000
    H20      H        0.61770    0.08940    0.13160    1.000
    C63      C        0.37841    0.87520    0.46210    1.000
    C64      C        0.66365    0.93860    0.00070    1.000
    H21      H        0.65960    0.89940    0.94730    1.000
    C65      C        0.40672    0.94440    0.41760    1.000
    C66      C        0.63257    0.99320    0.03280    1.000
    O22      O        0.65079    0.15080    0.27200    1.000
    C67      C        0.59317    0.99250    0.98200    1.000
    C68      C        0.51904    0.99870    0.97550    1.000
    C69      C        0.68246    0.12400    0.23280    1.000
    C70      C        0.40689    0.00550    0.11710    1.000
    H22      H        0.38170    0.00650    0.14930    1.000
    O23      O        0.51595    0.15380    0.44450    1.000
    C71      C        0.70772    0.99920    0.12100    1.000
    H23      H        0.73330    0.00070    0.15160    1.000
    C72      C        0.44174    0.00200    0.17060    1.000
    C73      C        0.73413    0.87480    0.01100    1.000
    C74      C        0.51633    0.98000    0.17510    1.000
    H24      H        0.51540    0.97040    0.24180    1.000
    C75      C        0.40957    0.94630    0.31930    1.000
    H25      H        0.39220    0.90980    0.28070    1.000
    C76      C        0.43817    0.00250    0.28010    1.000
    C77      C        0.45870    0.05930    0.42960    1.000
    C78      C        0.46220    0.05950    0.33170    1.000
    H26      H        0.48120    0.09890    0.30120    1.000
    C79      C        0.48570    0.12020    0.48610    1.000
    O24      O        0.47690    0.13330    0.57240    1.000
    C80      C        0.43110    0.99960    0.47260    1.000
    H27      H        0.42920    0.99710    0.53990    1.000
    C81      C        0.80240    0.79310    0.29260    1.000
    C82      C        0.80860    0.78800    0.47000    1.000
    C83      C        0.80900    0.64720    0.36900    1.000
    C84      C        0.44600    0.67400    0.71900    1.000
    O25      O        0.78220    0.85280    0.75370    1.000
    O26      O        0.15210    0.14760    0.91690    1.000
    O27      O        0.76891    0.15070    0.42550    1.000
    O28      O        0.11050    0.15590    0.04140    1.000
    C85      C        0.94471    0.00850    0.52980    1.000
    O29      O        0.73962    0.14700    0.56940    1.000
    C86      C        0.82320    0.94370    0.65160    1.000
    C87      C        0.94784    0.02170    0.63010    1.000
    H28      H        0.92400    0.03180    0.66600    1.000
    C88      C        0.02041    0.00430    0.62450    1.000
    C89      C        0.79891    0.05980    0.54580    1.000
    C90      C        0.86088    0.94820    0.60860    1.000
    H29      H        0.88230    0.91060    0.63160    1.000
    C91      C        0.12159    0.12480    0.96210    1.000
    C92      C        0.83635    0.06140    0.50070    1.000
    H30      H        0.84040    0.10060    0.44730    1.000
    C93      C        0.09328    0.05560    0.91760    1.000
    C94      C        0.86743    0.00680    0.53280    1.000
    O30      O        0.84921    0.84920    0.77200    1.000
    C95      C        0.90683    0.00750    0.48200    1.000
    C96      C        0.98096    0.00130    0.47550    1.000
    C97      C        0.81754    0.87600    0.73280    1.000
    C98      C        0.09311    0.99450    0.61710    1.000
    H31      H        0.11830    0.99350    0.64930    1.000
    O31      O        0.98405    0.84620    0.94450    1.000
    C99      C        0.79228    0.00080    0.62100    1.000
    H32      H        0.76670    0.99930    0.65160    1.000
    C100     C        0.05826    0.99800    0.67060    1.000
    C101     C        0.76587    0.12520    0.51100    1.000
    C102     C        0.98367    0.02000    0.67510    1.000
    H33      H        0.98460    0.02960    0.74180    1.000
    C103     C        0.09043    0.05370    0.81930    1.000
    H34      H        0.10780    0.09020    0.78070    1.000
    C104     C        0.06183    0.99750    0.78010    1.000
    C105     C        0.04130    0.94070    0.92960    1.000
    C106     C        0.03780    0.94050    0.83170    1.000
    H35      H        0.01880    0.90110    0.80120    1.000
    C107     C        0.01430    0.87980    0.98610    1.000
    O32      O        0.02310    0.86670    0.07240    1.000
    C108     C        0.06890    0.00040    0.97260    1.000
    H36      H        0.07080    0.00290    0.03990    1.000
    C109     C        0.69760    0.20690    0.79260    1.000
    C110     C        0.69140    0.21200    0.97000    1.000
    C111     C        0.69100    0.35280    0.86900    1.000
    C112     C        0.05400    0.32600    0.21900    1.000
    O33      O        0.71780    0.35280    0.25370    1.000
    O34      O        0.34790    0.64760    0.41690    1.000
    O35      O        0.73109    0.65070    0.92550    1.000
    O36      O        0.38950    0.65590    0.54140    1.000
    C113     C        0.55529    0.50850    0.02980    1.000
    O37      O        0.76038    0.64700    0.06940    1.000
    C114     C        0.67680    0.44370    0.15160    1.000
    C115     C        0.55216    0.52170    0.13010    1.000
    H37      H        0.57600    0.53180    0.16600    1.000
    C116     C        0.47959    0.50430    0.12450    1.000
    C117     C        0.70109    0.55980    0.04580    1.000
    C118     C        0.63912    0.44820    0.10860    1.000
    H38      H        0.61770    0.41060    0.13160    1.000
    C119     C        0.37841    0.62480    0.46210    1.000
    C120     C        0.66365    0.56140    0.00070    1.000
    H39      H        0.65960    0.60060    0.94730    1.000
    C121     C        0.40672    0.55560    0.41760    1.000
    C122     C        0.63257    0.50680    0.03280    1.000
    O38      O        0.65079    0.34920    0.27200    1.000
    C123     C        0.59317    0.50750    0.98200    1.000
    C124     C        0.51904    0.50130    0.97550    1.000
    C125     C        0.68246    0.37600    0.23280    1.000
    C126     C        0.40689    0.49450    0.11710    1.000
    H40      H        0.38170    0.49350    0.14930    1.000
    O39      O        0.51595    0.34620    0.44450    1.000
    C127     C        0.70772    0.50080    0.12100    1.000
    H41      H        0.73330    0.49930    0.15160    1.000
    C128     C        0.44174    0.49800    0.17060    1.000
    C129     C        0.73413    0.62520    0.01100    1.000
    C130     C        0.51633    0.52000    0.17510    1.000
    H42      H        0.51540    0.52960    0.24180    1.000
    C131     C        0.40957    0.55370    0.31930    1.000
    H43      H        0.39220    0.59020    0.28070    1.000
    C132     C        0.43817    0.49750    0.28010    1.000
    C133     C        0.45870    0.44070    0.42960    1.000
    C134     C        0.46220    0.44050    0.33170    1.000
    H44      H        0.48120    0.40110    0.30120    1.000
    C135     C        0.48570    0.37980    0.48610    1.000
    O40      O        0.47690    0.36670    0.57240    1.000
    C136     C        0.43110    0.50040    0.47260    1.000
    H45      H        0.42920    0.50290    0.53990    1.000
    C137     C        0.80240    0.70690    0.29260    1.000
    C138     C        0.80860    0.71200    0.47000    1.000
    C139     C        0.80900    0.85280    0.36900    1.000
    C140     C        0.44600    0.82600    0.71900    1.000
    O41      O        0.78220    0.64720    0.75370    1.000
    O42      O        0.15210    0.35240    0.91690    1.000
    O43      O        0.76891    0.34930    0.42550    1.000
    O44      O        0.11050    0.34410    0.04140    1.000
    C141     C        0.94471    0.49150    0.52980    1.000
    O45      O        0.73962    0.35300    0.56940    1.000
    C142     C        0.82320    0.55630    0.65160    1.000
    C143     C        0.94784    0.47830    0.63010    1.000
    H46      H        0.92400    0.46820    0.66600    1.000
    C144     C        0.02041    0.49570    0.62450    1.000
    C145     C        0.79891    0.44020    0.54580    1.000
    C146     C        0.86088    0.55180    0.60860    1.000
    H47      H        0.88230    0.58940    0.63160    1.000
    C147     C        0.12159    0.37520    0.96210    1.000
    C148     C        0.83635    0.43860    0.50070    1.000
    H48      H        0.84040    0.39940    0.44730    1.000
    C149     C        0.09328    0.44440    0.91760    1.000
    C150     C        0.86743    0.49320    0.53280    1.000
    O46      O        0.84921    0.65080    0.77200    1.000
    C151     C        0.90683    0.49250    0.48200    1.000
    C152     C        0.98096    0.49870    0.47550    1.000
    C153     C        0.81754    0.62400    0.73280    1.000
    C154     C        0.09311    0.50550    0.61710    1.000
    H49      H        0.11830    0.50650    0.64930    1.000
    O47      O        0.98405    0.65380    0.94450    1.000
    C155     C        0.79228    0.49920    0.62100    1.000
    H50      H        0.76670    0.50070    0.65160    1.000
    C156     C        0.05826    0.50200    0.67060    1.000
    C157     C        0.76587    0.37480    0.51100    1.000
    C158     C        0.98367    0.48000    0.67510    1.000
    H51      H        0.98460    0.47040    0.74180    1.000
    C159     C        0.09043    0.44630    0.81930    1.000
    H52      H        0.10780    0.40980    0.78070    1.000
    C160     C        0.06183    0.50250    0.78010    1.000
    C161     C        0.04130    0.55930    0.92960    1.000
    C162     C        0.03780    0.55950    0.83170    1.000
    H53      H        0.01880    0.59890    0.80120    1.000
    C163     C        0.01430    0.62020    0.98610    1.000
    O48      O        0.02310    0.63330    0.07240    1.000
    C164     C        0.06890    0.49960    0.97260    1.000
    H54      H        0.07080    0.49710    0.03990    1.000
    C165     C        0.69760    0.29310    0.79260    1.000
    C166     C        0.69140    0.28800    0.97000    1.000
    C167     C        0.69100    0.14720    0.86900    1.000
    C168     C        0.05400    0.17400    0.21900    1.000
    O49      O        0.28220    0.85280    0.74630    1.000
    O50      O        0.65210    0.14760    0.58310    1.000
    O51      O        0.26891    0.15070    0.07450    1.000
    O52      O        0.61050    0.15590    0.45860    1.000
    C169     C        0.44471    0.00850    0.97020    1.000
    O53      O        0.23962    0.14700    0.93060    1.000
    C170     C        0.32320    0.94370    0.84840    1.000
    C171     C        0.44784    0.02170    0.86990    1.000
    H55      H        0.42400    0.03180    0.83400    1.000
    C172     C        0.52041    0.00430    0.87550    1.000
    C173     C        0.29891    0.05980    0.95420    1.000
    C174     C        0.36088    0.94820    0.89140    1.000
    H56      H        0.38230    0.91060    0.86840    1.000
    C175     C        0.62159    0.12480    0.53790    1.000
    C176     C        0.33635    0.06140    0.99930    1.000
    H57      H        0.34040    0.10060    0.05270    1.000
    C177     C        0.59328    0.05560    0.58240    1.000
    C178     C        0.36743    0.00680    0.96720    1.000
    O54      O        0.34921    0.84920    0.72800    1.000
    C179     C        0.40683    0.00750    0.01800    1.000
    C180     C        0.48096    0.00130    0.02450    1.000
    C181     C        0.31754    0.87600    0.76720    1.000
    C182     C        0.59311    0.99450    0.88290    1.000
    H58      H        0.61830    0.99350    0.85070    1.000
    O55      O        0.48405    0.84620    0.55550    1.000
    C183     C        0.29228    0.00080    0.87900    1.000
    H59      H        0.26670    0.99930    0.84840    1.000
    C184     C        0.55826    0.99800    0.82940    1.000
    C185     C        0.26587    0.12520    0.98900    1.000
    C186     C        0.48367    0.02000    0.82490    1.000
    H60      H        0.48460    0.02960    0.75820    1.000
    C187     C        0.59043    0.05370    0.68070    1.000
    H61      H        0.60780    0.09020    0.71930    1.000
    C188     C        0.56183    0.99750    0.71990    1.000
    C189     C        0.54130    0.94070    0.57040    1.000
    C190     C        0.53780    0.94050    0.66830    1.000
    H62      H        0.51880    0.90110    0.69880    1.000
    C191     C        0.51430    0.87980    0.51390    1.000
    O56      O        0.52310    0.86670    0.42760    1.000
    C192     C        0.56890    0.00040    0.52740    1.000
    H63      H        0.57080    0.00290    0.46010    1.000
    C193     C        0.19760    0.20690    0.70740    1.000
    C194     C        0.19140    0.21200    0.53000    1.000
    C195     C        0.19100    0.35280    0.63100    1.000
    C196     C        0.55400    0.32600    0.28100    1.000
    O57      O        0.21780    0.14720    0.24630    1.000
    O58      O        0.84790    0.85240    0.08310    1.000
    O59      O        0.23109    0.84930    0.57450    1.000
    O60      O        0.88950    0.84410    0.95860    1.000
    C197     C        0.05529    0.99150    0.47020    1.000
    O61      O        0.26038    0.85300    0.43060    1.000
    C198     C        0.17680    0.05630    0.34840    1.000
    C199     C        0.05216    0.97830    0.36990    1.000
    H64      H        0.07600    0.96820    0.33400    1.000
    C200     C        0.97959    0.99570    0.37550    1.000
    C201     C        0.20109    0.94020    0.45420    1.000
    C202     C        0.13912    0.05180    0.39140    1.000
    H65      H        0.11770    0.08940    0.36840    1.000
    C203     C        0.87841    0.87520    0.03790    1.000
    C204     C        0.16365    0.93860    0.49930    1.000
    H66      H        0.15960    0.89940    0.55270    1.000
    C205     C        0.90672    0.94440    0.08240    1.000
    C206     C        0.13257    0.99320    0.46720    1.000
    O62      O        0.15079    0.15080    0.22800    1.000
    C207     C        0.09317    0.99250    0.51800    1.000
    C208     C        0.01904    0.99870    0.52450    1.000
    C209     C        0.18246    0.12400    0.26720    1.000
    C210     C        0.90689    0.00550    0.38290    1.000
    H67      H        0.88170    0.00650    0.35070    1.000
    O63      O        0.01595    0.15380    0.05550    1.000
    C211     C        0.20772    0.99920    0.37900    1.000
    H68      H        0.23330    0.00070    0.34840    1.000
    C212     C        0.94174    0.00200    0.32940    1.000
    C213     C        0.23413    0.87480    0.48900    1.000
    C214     C        0.01633    0.98000    0.32490    1.000
    H69      H        0.01540    0.97040    0.25820    1.000
    C215     C        0.90957    0.94630    0.18070    1.000
    H70      H        0.89220    0.90980    0.21930    1.000
    C216     C        0.93817    0.00250    0.21990    1.000
    C217     C        0.95870    0.05930    0.07040    1.000
    C218     C        0.96220    0.05950    0.16830    1.000
    H71      H        0.98120    0.09890    0.19880    1.000
    C219     C        0.98570    0.12020    0.01390    1.000
    O64      O        0.97690    0.13330    0.92760    1.000
    C220     C        0.93110    0.99960    0.02740    1.000
    H72      H        0.92920    0.99710    0.96010    1.000
    C221     C        0.30240    0.79310    0.20740    1.000
    C222     C        0.30860    0.78800    0.03000    1.000
    C223     C        0.30900    0.64720    0.13100    1.000
    C224     C        0.94600    0.67400    0.78100    1.000
    Co1      Co       0.24118    0.25000    0.15735    1.000
    Co2      Co       0.19637    0.25000    0.92921    1.000
    Co3      Co       0.55720    0.25000    0.46655    1.000
    O65      O        0.19890    0.25000    0.78190    1.000
    N1       N        0.19340    0.25000    0.62400    1.000
    O66      O        0.57430    0.25000    0.31660    1.000
    O67      O        0.56150    0.25000    0.61370    1.000
    O68      O        0.08890    0.25000    0.72000    1.000
    C225     C        0.16010    0.25000    0.53400    1.000
    C226     C        0.12600    0.25000    0.69700    1.000
    C227     C        0.08140    0.25000    0.56600    1.000
    N2       N        0.12460    0.25000    0.60100    1.000
    Co4      Co       0.47690    0.25000    0.64770    1.000
    O69      O        0.52160    0.25000    0.74170    1.000
    Co5      Co       0.49550    0.25000    0.64210    1.000
    O70      O        0.55550    0.25000    0.70700    1.000
    O71      O        0.54440    0.25000    0.60840    1.000
    Co6      Co       0.25882    0.75000    0.65735    1.000
    Co7      Co       0.30363    0.75000    0.42921    1.000
    Co8      Co       0.94280    0.75000    0.96655    1.000
    O72      O        0.30110    0.75000    0.28190    1.000
    N3       N        0.30660    0.75000    0.12400    1.000
    O73      O        0.92570    0.75000    0.81660    1.000
    O74      O        0.93850    0.75000    0.11370    1.000
    O75      O        0.41110    0.75000    0.22000    1.000
    C228     C        0.33990    0.75000    0.03400    1.000
    C229     C        0.37400    0.75000    0.19700    1.000
    C230     C        0.41860    0.75000    0.06600    1.000
    N4       N        0.37540    0.75000    0.10100    1.000
    Co9      Co       0.02310    0.75000    0.14770    1.000
    O76      O        0.97840    0.75000    0.24170    1.000
    Co10     Co       0.00450    0.75000    0.14210    1.000
    O77      O        0.94450    0.75000    0.20700    1.000
    O78      O        0.95560    0.75000    0.10840    1.000
    Co11     Co       0.75882    0.75000    0.84265    1.000
    Co12     Co       0.80363    0.75000    0.07079    1.000
    Co13     Co       0.44280    0.75000    0.53345    1.000
    O79      O        0.80110    0.75000    0.21810    1.000
    N5       N        0.80660    0.75000    0.37600    1.000
    O80      O        0.42570    0.75000    0.68340    1.000
    O81      O        0.43850    0.75000    0.38630    1.000
    O82      O        0.91110    0.75000    0.28000    1.000
    C231     C        0.83990    0.75000    0.46600    1.000
    C232     C        0.87400    0.75000    0.30300    1.000
    C233     C        0.91860    0.75000    0.43400    1.000
    N6       N        0.87540    0.75000    0.39900    1.000
    Co14     Co       0.52310    0.75000    0.35230    1.000
    O83      O        0.47840    0.75000    0.25830    1.000
    Co15     Co       0.50450    0.75000    0.35790    1.000
    O84      O        0.44450    0.75000    0.29300    1.000
    O85      O        0.45560    0.75000    0.39160    1.000
    Co16     Co       0.74118    0.25000    0.34265    1.000
    Co17     Co       0.69637    0.25000    0.57079    1.000
    Co18     Co       0.05720    0.25000    0.03345    1.000
    O86      O        0.69890    0.25000    0.71810    1.000
    N7       N        0.69340    0.25000    0.87600    1.000
    O87      O        0.07430    0.25000    0.18340    1.000
    O88      O        0.06150    0.25000    0.88630    1.000
    O89      O        0.58890    0.25000    0.78000    1.000
    C234     C        0.66010    0.25000    0.96600    1.000
    C235     C        0.62600    0.25000    0.80300    1.000
    C236     C        0.58140    0.25000    0.93400    1.000
    N8       N        0.62460    0.25000    0.89900    1.000
    Co19     Co       0.97690    0.25000    0.85230    1.000
    O90      O        0.02160    0.25000    0.75830    1.000
    Co20     Co       0.99550    0.25000    0.85790    1.000
    O91      O        0.05550    0.25000    0.79300    1.000
    O92      O        0.04440    0.25000    0.89160    1.000
    Co21     Co       0.36281    0.75000    0.63345    1.000
    O93      O        0.30831    0.75000    0.57180    1.000
    Co22     Co       0.13719    0.25000    0.13345    1.000
    O94      O        0.19169    0.25000    0.07180    1.000
    Co23     Co       0.63719    0.25000    0.36655    1.000
    O95      O        0.69169    0.25000    0.42820    1.000
    Co24     Co       0.86281    0.75000    0.86655    1.000
    O96      O        0.80831    0.75000    0.92820    1.000
