# CIF file generated by openbabel 3.1.0, see https://openbabel.org
data_I
_chemical_name_common 'IXUWOO_clean'
_cell_length_a 15.1056
_cell_length_b 15.1056
_cell_length_c 16.1364
_cell_angle_alpha 85.6484
_cell_angle_beta 85.6484
_cell_angle_gamma 85.6272
_space_group_name_H-M_alt 'P 1'
_space_group_name_Hall 'P 1'
loop_
    _symmetry_equiv_pos_as_xyz
    x,y,z
loop_
    _atom_site_label
    _atom_site_type_symbol
    _atom_site_fract_x
    _atom_site_fract_y
    _atom_site_fract_z
    _atom_site_occupancy
    Co1      Co       0.80120    0.77234    0.75473    1.000
    Co2      Co       0.22766    0.19880    0.74527    1.000
    Co3      Co       0.19880    0.22766    0.24527    1.000
    Co4      Co       0.77234    0.80120    0.25473    1.000
    H1       H        0.52690    0.07550    0.57550    1.000
    H2       H        0.61460    0.41780    0.40460    1.000
    H3       H        0.89270    0.92870    0.11780    1.000
    H4       H        0.83460    0.85620    0.01720    1.000
    H5       H        0.00550    0.96130    0.84140    1.000
    H6       H        0.04290    0.40050    0.63330    1.000
    H7       H        0.96970    0.50450    0.71240    1.000
    H8       H        0.90220    0.65160    0.50730    1.000
    H9       H        0.58460    0.33120    0.50510    1.000
    H10      H        0.34180    0.37760    0.42680    1.000
    H11      H        0.29800    0.25040    0.50670    1.000
    H12      H        0.40230    0.15870    0.57550    1.000
    H13      H        0.78480    0.98100    0.75540    1.000
    H14      H        0.69860    0.09880    0.70140    1.000
    H15      H        0.58350    0.93050    0.57600    1.000
    H16      H        0.66970    0.81850    0.63430    1.000
    H17      H        0.80390    0.62310    0.33910    1.000
    H18      H        0.73810    0.49890    0.39050    1.000
    H19      H        0.51490    0.60030    0.29550    1.000
    H20      H        0.58870    0.72270    0.24500    1.000
    H21      H        0.92450    0.47310    0.92450    1.000
    H22      H        0.58220    0.38540    0.09540    1.000
    H23      H        0.07130    0.10730    0.38220    1.000
    H24      H        0.14380    0.16540    0.48280    1.000
    H25      H        0.03870    0.99450    0.65860    1.000
    H26      H        0.59950    0.95710    0.86670    1.000
    H27      H        0.49550    0.03030    0.78760    1.000
    H28      H        0.34840    0.09780    0.99270    1.000
    H29      H        0.66880    0.41540    0.99490    1.000
    H30      H        0.62240    0.65820    0.07320    1.000
    H31      H        0.74960    0.70200    0.99330    1.000
    H32      H        0.84130    0.59770    0.92450    1.000
    H33      H        0.01900    0.21520    0.74460    1.000
    H34      H        0.90120    0.30140    0.79860    1.000
    H35      H        0.06950    0.41650    0.92400    1.000
    H36      H        0.18150    0.33030    0.86570    1.000
    H37      H        0.37690    0.19610    0.16090    1.000
    H38      H        0.50110    0.26190    0.10950    1.000
    H39      H        0.39970    0.48510    0.20450    1.000
    H40      H        0.27730    0.41130    0.25500    1.000
    H41      H        0.47310    0.92450    0.42450    1.000
    H42      H        0.38540    0.58220    0.59540    1.000
    H43      H        0.10730    0.07130    0.88220    1.000
    H44      H        0.16540    0.14380    0.98280    1.000
    H45      H        0.99450    0.03870    0.15860    1.000
    H46      H        0.95710    0.59950    0.36670    1.000
    H47      H        0.03030    0.49550    0.28760    1.000
    H48      H        0.09780    0.34840    0.49270    1.000
    H49      H        0.41540    0.66880    0.49490    1.000
    H50      H        0.65820    0.62240    0.57320    1.000
    H51      H        0.70200    0.74960    0.49330    1.000
    H52      H        0.59770    0.84130    0.42450    1.000
    H53      H        0.21520    0.01900    0.24460    1.000
    H54      H        0.30140    0.90120    0.29860    1.000
    H55      H        0.41650    0.06950    0.42400    1.000
    H56      H        0.33030    0.18150    0.36570    1.000
    H57      H        0.19610    0.37690    0.66090    1.000
    H58      H        0.26190    0.50110    0.60950    1.000
    H59      H        0.48510    0.39970    0.70450    1.000
    H60      H        0.41130    0.27730    0.75500    1.000
    H61      H        0.07550    0.52690    0.07550    1.000
    H62      H        0.41780    0.61460    0.90460    1.000
    H63      H        0.92870    0.89270    0.61780    1.000
    H64      H        0.85620    0.83460    0.51720    1.000
    H65      H        0.96130    0.00550    0.34140    1.000
    H66      H        0.40050    0.04290    0.13330    1.000
    H67      H        0.50450    0.96970    0.21240    1.000
    H68      H        0.65160    0.90220    0.00730    1.000
    H69      H        0.33120    0.58460    0.00510    1.000
    H70      H        0.37760    0.34180    0.92680    1.000
    H71      H        0.25040    0.29800    0.00670    1.000
    H72      H        0.15870    0.40230    0.07550    1.000
    H73      H        0.98100    0.78480    0.25540    1.000
    H74      H        0.09880    0.69860    0.20140    1.000
    H75      H        0.93050    0.58350    0.07600    1.000
    H76      H        0.81850    0.66970    0.13430    1.000
    H77      H        0.62310    0.80390    0.83910    1.000
    H78      H        0.49890    0.73810    0.89050    1.000
    H79      H        0.60030    0.51490    0.79550    1.000
    H80      H        0.72270    0.58870    0.74500    1.000
    C1       C        0.87830    0.85330    0.85380    1.000
    C2       C        0.91460    0.93680    0.06250    1.000
    C3       C        0.88090    0.89290    0.00290    1.000
    C4       C        0.91640    0.90280    0.91870    1.000
    C5       C        0.98250    0.95610    0.89650    1.000
    C6       C        0.01830    0.00630    0.95930    1.000
    C7       C        0.88070    0.65690    0.66940    1.000
    C8       C        0.01570    0.45130    0.60720    1.000
    C9       C        0.97170    0.51290    0.65460    1.000
    C10      C        0.92900    0.58940    0.61630    1.000
    C11      C        0.93160    0.60120    0.53220    1.000
    C12      C        0.97830    0.53790    0.48140    1.000
    C13      C        0.57260    0.18360    0.59660    1.000
    C14      C        0.49130    0.44910    0.40670    1.000
    C15      C        0.50190    0.23590    0.54790    1.000
    C16      C        0.52710    0.31390    0.50290    1.000
    C17      C        0.46870    0.36490    0.45620    1.000
    C18      C        0.38280    0.34220    0.45720    1.000
    C19      C        0.35680    0.26520    0.50440    1.000
    C20      C        0.41850    0.21150    0.54720    1.000
    C21      C        0.74190    0.97010    0.71980    1.000
    C22      C        0.69060    0.04160    0.68710    1.000
    C23      C        0.62770    0.02810    0.63340    1.000
    C24      C        0.62320    0.94300    0.61420    1.000
    C25      C        0.67520    0.87600    0.64930    1.000
    C26      C        0.74440    0.61900    0.33000    1.000
    C27      C        0.70510    0.54450    0.36220    1.000
    C28      C        0.61660    0.53740    0.35240    1.000
    C29      C        0.57400    0.60380    0.30630    1.000
    C30      C        0.61940    0.67720    0.27540    1.000
    C31      C        0.14670    0.12170    0.64620    1.000
    C32      C        0.06320    0.08540    0.43750    1.000
    C33      C        0.10710    0.11910    0.49710    1.000
    C34      C        0.09720    0.08360    0.58130    1.000
    C35      C        0.04390    0.01750    0.60350    1.000
    C36      C        0.99370    0.98170    0.54070    1.000
    C37      C        0.34310    0.11930    0.83060    1.000
    C38      C        0.54870    0.98430    0.89280    1.000
    C39      C        0.48710    0.02830    0.84540    1.000
    C40      C        0.41060    0.07100    0.88370    1.000
    C41      C        0.39880    0.06840    0.96780    1.000
    C42      C        0.46210    0.02170    0.01860    1.000
    C43      C        0.81640    0.42740    0.90340    1.000
    C44      C        0.55090    0.50870    0.09330    1.000
    C45      C        0.76410    0.49810    0.95210    1.000
    C46      C        0.68610    0.47290    0.99710    1.000
    C47      C        0.63510    0.53130    0.04380    1.000
    C48      C        0.65780    0.61720    0.04280    1.000
    C49      C        0.73480    0.64320    0.99560    1.000
    C50      C        0.78850    0.58150    0.95280    1.000
    C51      C        0.02990    0.25810    0.78020    1.000
    C52      C        0.95840    0.30940    0.81290    1.000
    C53      C        0.97190    0.37230    0.86660    1.000
    C54      C        0.05700    0.37680    0.88580    1.000
    C55      C        0.12400    0.32480    0.85070    1.000
    C56      C        0.38100    0.25560    0.17000    1.000
    C57      C        0.45550    0.29490    0.13780    1.000
    C58      C        0.46260    0.38340    0.14760    1.000
    C59      C        0.39620    0.42600    0.19370    1.000
    C60      C        0.32280    0.38060    0.22460    1.000
    C61      C        0.12170    0.14670    0.14620    1.000
    C62      C        0.08540    0.06320    0.93750    1.000
    C63      C        0.11910    0.10710    0.99710    1.000
    C64      C        0.08360    0.09720    0.08130    1.000
    C65      C        0.01750    0.04390    0.10350    1.000
    C66      C        0.98170    0.99370    0.04070    1.000
    C67      C        0.11930    0.34310    0.33060    1.000
    C68      C        0.98430    0.54870    0.39280    1.000
    C69      C        0.02830    0.48710    0.34540    1.000
    C70      C        0.07100    0.41060    0.38370    1.000
    C71      C        0.06840    0.39880    0.46780    1.000
    C72      C        0.02170    0.46210    0.51860    1.000
    C73      C        0.42740    0.81640    0.40340    1.000
    C74      C        0.50870    0.55090    0.59330    1.000
    C75      C        0.49810    0.76410    0.45210    1.000
    C76      C        0.47290    0.68610    0.49710    1.000
    C77      C        0.53130    0.63510    0.54380    1.000
    C78      C        0.61720    0.65780    0.54280    1.000
    C79      C        0.64320    0.73480    0.49560    1.000
    C80      C        0.58150    0.78850    0.45280    1.000
    C81      C        0.25810    0.02990    0.28020    1.000
    C82      C        0.30940    0.95840    0.31290    1.000
    C83      C        0.37230    0.97190    0.36660    1.000
    C84      C        0.37680    0.05700    0.38580    1.000
    C85      C        0.32480    0.12400    0.35070    1.000
    C86      C        0.25560    0.38100    0.67000    1.000
    C87      C        0.29490    0.45550    0.63780    1.000
    C88      C        0.38340    0.46260    0.64760    1.000
    C89      C        0.42600    0.39620    0.69370    1.000
    C90      C        0.38060    0.32280    0.72460    1.000
    C91      C        0.85330    0.87830    0.35380    1.000
    C92      C        0.93680    0.91460    0.56250    1.000
    C93      C        0.89290    0.88090    0.50290    1.000
    C94      C        0.90280    0.91640    0.41870    1.000
    C95      C        0.95610    0.98250    0.39650    1.000
    C96      C        0.00630    0.01830    0.45930    1.000
    C97      C        0.65690    0.88070    0.16940    1.000
    C98      C        0.45130    0.01570    0.10720    1.000
    C99      C        0.51290    0.97170    0.15460    1.000
    C100     C        0.58940    0.92900    0.11630    1.000
    C101     C        0.60120    0.93160    0.03220    1.000
    C102     C        0.53790    0.97830    0.98140    1.000
    C103     C        0.18360    0.57260    0.09660    1.000
    C104     C        0.44910    0.49130    0.90670    1.000
    C105     C        0.23590    0.50190    0.04790    1.000
    C106     C        0.31390    0.52710    0.00290    1.000
    C107     C        0.36490    0.46870    0.95620    1.000
    C108     C        0.34220    0.38280    0.95720    1.000
    C109     C        0.26520    0.35680    0.00440    1.000
    C110     C        0.21150    0.41850    0.04720    1.000
    C111     C        0.97010    0.74190    0.21980    1.000
    C112     C        0.04160    0.69060    0.18710    1.000
    C113     C        0.02810    0.62770    0.13340    1.000
    C114     C        0.94300    0.62320    0.11420    1.000
    C115     C        0.87600    0.67520    0.14930    1.000
    C116     C        0.61900    0.74440    0.83000    1.000
    C117     C        0.54450    0.70510    0.86220    1.000
    C118     C        0.53740    0.61660    0.85240    1.000
    C119     C        0.60380    0.57400    0.80630    1.000
    C120     C        0.67720    0.61940    0.77540    1.000
    N1       N        0.73390    0.88750    0.70390    1.000
    N2       N        0.57040    0.09420    0.59900    1.000
    N3       N        0.70360    0.68600    0.28670    1.000
    N4       N        0.57810    0.46190    0.39010    1.000
    N5       N        0.11250    0.26610    0.79610    1.000
    N6       N        0.90580    0.42960    0.90100    1.000
    N7       N        0.31400    0.29640    0.21330    1.000
    N8       N        0.53810    0.42190    0.10990    1.000
    N9       N        0.26610    0.11250    0.29610    1.000
    N10      N        0.42960    0.90580    0.40100    1.000
    N11      N        0.29640    0.31400    0.71330    1.000
    N12      N        0.42190    0.53810    0.60990    1.000
    N13      N        0.88750    0.73390    0.20390    1.000
    N14      N        0.09420    0.57040    0.09900    1.000
    N15      N        0.68600    0.70360    0.78670    1.000
    N16      N        0.46190    0.57810    0.89010    1.000
    O1       O        0.91350    0.84930    0.78200    1.000
    O2       O        0.80660    0.81640    0.87380    1.000
    O3       O        0.88670    0.65050    0.74740    1.000
    O4       O        0.83300    0.71920    0.63770    1.000
    O5       O        0.62760    0.22080    0.63260    1.000
    O6       O        0.43330    0.50370    0.38260    1.000
    O7       O        0.15070    0.08650    0.71800    1.000
    O8       O        0.18360    0.19340    0.62620    1.000
    O9       O        0.34950    0.11330    0.75260    1.000
    O10      O        0.28080    0.16700    0.86230    1.000
    O11      O        0.77920    0.37240    0.86740    1.000
    O12      O        0.49630    0.56670    0.11740    1.000
    O13      O        0.08650    0.15070    0.21800    1.000
    O14      O        0.19340    0.18360    0.12620    1.000
    O15      O        0.11330    0.34950    0.25260    1.000
    O16      O        0.16700    0.28080    0.36230    1.000
    O17      O        0.37240    0.77920    0.36740    1.000
    O18      O        0.56670    0.49630    0.61740    1.000
    O19      O        0.84930    0.91350    0.28200    1.000
    O20      O        0.81640    0.80660    0.37380    1.000
    O21      O        0.65050    0.88670    0.24740    1.000
    O22      O        0.71920    0.83300    0.13770    1.000
    O23      O        0.22080    0.62760    0.13260    1.000
    O24      O        0.50370    0.43330    0.88260    1.000
