# CIF file generated by openbabel 3.1.0, see https://openbabel.org
data_I
_chemical_name_common 'image0'
_cell_length_a 16.254
_cell_length_b 13.508
_cell_length_c 7.683
_cell_angle_alpha 90
_cell_angle_beta 90.91
_cell_angle_gamma 90
_space_group_name_H-M_alt 'P 1'
_space_group_name_Hall 'P 1'
loop_
    _symmetry_equiv_pos_as_xyz
    x,y,z
loop_
    _atom_site_label
    _atom_site_type_symbol
    _atom_site_fract_x
    _atom_site_fract_y
    _atom_site_fract_z
    _atom_site_occupancy
    O1       O        0.44050    0.26630    0.44180    1.000
    O2       O        0.62140    0.19310    0.37890    1.000
    O3       O        0.60210    0.20730    0.66130    1.000
    O4       O        0.93000    0.10180    0.62510    1.000
    O5       O        0.86530    0.96030    0.65660    1.000
    C1       C        0.64210    0.18270    0.53600    1.000
    C2       C        0.72080    0.13490    0.56630    1.000
    C3       C        0.78680    0.09840    0.59600    1.000
    C4       C        0.86640    0.04890    0.62910    1.000
    O6       O        0.94050    0.76630    0.44180    1.000
    O7       O        0.12140    0.69310    0.37890    1.000
    O8       O        0.10210    0.70730    0.66130    1.000
    O9       O        0.43000    0.60180    0.62510    1.000
    O10      O        0.36530    0.46030    0.65660    1.000
    C5       C        0.14210    0.68270    0.53600    1.000
    C6       C        0.22080    0.63490    0.56630    1.000
    C7       C        0.28680    0.59840    0.59600    1.000
    C8       C        0.36640    0.54890    0.62910    1.000
    O11      O        0.55950    0.26630    0.05820    1.000
    O12      O        0.37860    0.19310    0.12110    1.000
    O13      O        0.39790    0.20730    0.83870    1.000
    O14      O        0.07000    0.10180    0.87490    1.000
    O15      O        0.13470    0.96030    0.84340    1.000
    C9       C        0.35790    0.18270    0.96400    1.000
    C10      C        0.27920    0.13490    0.93370    1.000
    C11      C        0.21320    0.09840    0.90400    1.000
    C12      C        0.13360    0.04890    0.87090    1.000
    O16      O        0.05950    0.76630    0.05820    1.000
    O17      O        0.87860    0.69310    0.12110    1.000
    O18      O        0.89790    0.70730    0.83870    1.000
    O19      O        0.57000    0.60180    0.87490    1.000
    O20      O        0.63470    0.46030    0.84340    1.000
    C13      C        0.85790    0.68270    0.96400    1.000
    C14      C        0.77920    0.63490    0.93370    1.000
    C15      C        0.71320    0.59840    0.90400    1.000
    C16      C        0.63360    0.54890    0.87090    1.000
    O21      O        0.55950    0.73370    0.55820    1.000
    O22      O        0.37860    0.80690    0.62110    1.000
    O23      O        0.39790    0.79270    0.33870    1.000
    O24      O        0.07000    0.89820    0.37490    1.000
    O25      O        0.13470    0.03970    0.34340    1.000
    C17      C        0.35790    0.81730    0.46400    1.000
    C18      C        0.27920    0.86510    0.43370    1.000
    C19      C        0.21320    0.90160    0.40400    1.000
    C20      C        0.13360    0.95110    0.37090    1.000
    O26      O        0.05950    0.23370    0.55820    1.000
    O27      O        0.87860    0.30690    0.62110    1.000
    O28      O        0.89790    0.29270    0.33870    1.000
    O29      O        0.57000    0.39820    0.37490    1.000
    O30      O        0.63470    0.53970    0.34340    1.000
    C21      C        0.85790    0.31730    0.46400    1.000
    C22      C        0.77920    0.36510    0.43370    1.000
    C23      C        0.71320    0.40160    0.40400    1.000
    C24      C        0.63360    0.45110    0.37090    1.000
    O31      O        0.44050    0.73370    0.94180    1.000
    O32      O        0.62140    0.80690    0.87890    1.000
    O33      O        0.60210    0.79270    0.16130    1.000
    O34      O        0.93000    0.89820    0.12510    1.000
    O35      O        0.86530    0.03970    0.15660    1.000
    C25      C        0.64210    0.81730    0.03600    1.000
    C26      C        0.72080    0.86510    0.06630    1.000
    C27      C        0.78680    0.90160    0.09600    1.000
    C28      C        0.86640    0.95110    0.12910    1.000
    O36      O        0.94050    0.23370    0.94180    1.000
    O37      O        0.12140    0.30690    0.87890    1.000
    O38      O        0.10210    0.29270    0.16130    1.000
    O39      O        0.43000    0.39820    0.12510    1.000
    O40      O        0.36530    0.53970    0.15660    1.000
    C29      C        0.14210    0.31730    0.03600    1.000
    C30      C        0.22080    0.36510    0.06630    1.000
    C31      C        0.28680    0.40160    0.09600    1.000
    C32      C        0.36640    0.45110    0.12910    1.000
    U1       U        0.50000    0.26553    0.25000    1.000
    U2       U        0.00000    0.76553    0.25000    1.000
    U3       U        0.50000    0.73447    0.75000    1.000
    U4       U        0.00000    0.23447    0.75000    1.000
    K1       K        0.50000    0.36037    0.75000    1.000
    K2       K        0.00000    0.86037    0.75000    1.000
    K3       K        0.50000    0.63963    0.25000    1.000
    K4       K        0.00000    0.13963    0.25000    1.000
