# CIF file generated by openbabel 3.1.0, see https://openbabel.org
data_I
_chemical_name_common 'image0'
_cell_length_a 14.2228
_cell_length_b 16.705
_cell_length_c 21.602
_cell_angle_alpha 90
_cell_angle_beta 90
_cell_angle_gamma 90
_space_group_name_H-M_alt 'P 1'
_space_group_name_Hall 'P 1'
loop_
    _symmetry_equiv_pos_as_xyz
    x,y,z
loop_
    _atom_site_label
    _atom_site_type_symbol
    _atom_site_fract_x
    _atom_site_fract_y
    _atom_site_fract_z
    _atom_site_occupancy
    Co1      Co       0.87076    0.26820    0.92522    1.000
    Co2      Co       0.03565    0.26935    0.59847    1.000
    N1       N        0.82653    0.24429    0.83416    1.000
    C1       C        0.81128    0.24251    0.78211    1.000
    N2       N        0.90505    0.25904    0.64324    1.000
    C2       C        0.85179    0.25117    0.68230    1.000
    N3       N        0.78571    0.24062    0.72374    1.000
    N4       N        0.00883    0.28340    0.88437    1.000
    C3       C        0.05906    0.29146    0.84271    1.000
    N5       N        0.09219    0.28553    0.68925    1.000
    C4       C        0.10233    0.29083    0.74187    1.000
    N6       N        0.12444    0.30035    0.80063    1.000
    N7       N        0.92443    0.28746    0.01630    1.000
    C5       C        0.99200    0.27891    0.04450    1.000
    N8       N        0.22527    0.24495    0.05076    1.000
    C6       C        0.14770    0.25642    0.06257    1.000
    N9       N        0.06192    0.26980    0.08267    1.000
    N10      N        0.84943    0.39110    0.91565    1.000
    C7       C        0.84167    0.45925    0.90907    1.000
    N11      N        0.93187    0.64602    0.89535    1.000
    C8       C        0.88360    0.59080    0.89800    1.000
    N12      N        0.82024    0.53411    0.89998    1.000
    N13      N        0.17091    0.28285    0.55724    1.000
    C9       C        0.25060    0.29144    0.55193    1.000
    N14      N        0.46090    0.25128    0.48445    1.000
    C10      C        0.39991    0.27500    0.51427    1.000
    N15      N        0.34108    0.30786    0.55262    1.000
    N16      N        0.98034    0.89427    0.91673    1.000
    C11      C        0.95385    0.95067    0.94268    1.000
    N17      N        0.89371    0.14592    0.94157    1.000
    C12      C        0.90947    0.08088    0.95613    1.000
    N18      N        0.92617    0.00918    0.97836    1.000
    Co3      Co       0.62924    0.73180    0.42522    1.000
    Co4      Co       0.46435    0.73065    0.09847    1.000
    N19      N        0.67347    0.75571    0.33416    1.000
    C13      C        0.68872    0.75749    0.28211    1.000
    N20      N        0.59495    0.74096    0.14324    1.000
    C14      C        0.64821    0.74883    0.18230    1.000
    N21      N        0.71429    0.75938    0.22374    1.000
    N22      N        0.49117    0.71660    0.38437    1.000
    C15      C        0.44094    0.70854    0.34271    1.000
    N23      N        0.40781    0.71447    0.18925    1.000
    C16      C        0.39767    0.70917    0.24187    1.000
    N24      N        0.37556    0.69965    0.30063    1.000
    N25      N        0.57557    0.71254    0.51630    1.000
    C17      C        0.50800    0.72109    0.54450    1.000
    N26      N        0.27473    0.75505    0.55076    1.000
    C18      C        0.35230    0.74358    0.56257    1.000
    N27      N        0.43808    0.73020    0.58267    1.000
    N28      N        0.65057    0.60890    0.41565    1.000
    C19      C        0.65833    0.54075    0.40907    1.000
    N29      N        0.56813    0.35398    0.39535    1.000
    C20      C        0.61640    0.40920    0.39800    1.000
    N30      N        0.67976    0.46589    0.39998    1.000
    N31      N        0.32909    0.71715    0.05724    1.000
    C21      C        0.24940    0.70856    0.05193    1.000
    N32      N        0.03910    0.74872    0.98445    1.000
    C22      C        0.10009    0.72500    0.01427    1.000
    N33      N        0.15892    0.69214    0.05262    1.000
    N34      N        0.51966    0.10573    0.41673    1.000
    C23      C        0.54615    0.04933    0.44268    1.000
    N35      N        0.60629    0.85408    0.44157    1.000
    C24      C        0.59053    0.91912    0.45613    1.000
    N36      N        0.57383    0.99082    0.47836    1.000
    Co5      Co       0.12924    0.76820    0.57478    1.000
    Co6      Co       0.96435    0.76935    0.90153    1.000
    N37      N        0.17347    0.74429    0.66584    1.000
    C25      C        0.18872    0.74251    0.71789    1.000
    N38      N        0.09495    0.75904    0.85676    1.000
    C26      C        0.14821    0.75117    0.81770    1.000
    N39      N        0.21429    0.74062    0.77626    1.000
    N40      N        0.99117    0.78340    0.61563    1.000
    C27      C        0.94094    0.79146    0.65729    1.000
    N41      N        0.90781    0.78553    0.81075    1.000
    C28      C        0.89767    0.79083    0.75813    1.000
    N42      N        0.87556    0.80035    0.69937    1.000
    N43      N        0.07557    0.78746    0.48370    1.000
    C29      C        0.00800    0.77891    0.45550    1.000
    N44      N        0.77473    0.74495    0.44924    1.000
    C30      C        0.85230    0.75642    0.43743    1.000
    N45      N        0.93808    0.76980    0.41733    1.000
    N46      N        0.15057    0.89110    0.58435    1.000
    C31      C        0.15833    0.95925    0.59093    1.000
    N47      N        0.06813    0.14602    0.60465    1.000
    C32      C        0.11640    0.09080    0.60200    1.000
    N48      N        0.17976    0.03411    0.60002    1.000
    N49      N        0.82909    0.78285    0.94276    1.000
    C33      C        0.74940    0.79144    0.94807    1.000
    N50      N        0.53910    0.75128    0.01555    1.000
    C34      C        0.60009    0.77500    0.98573    1.000
    N51      N        0.65892    0.80786    0.94738    1.000
    N52      N        0.01966    0.39427    0.58327    1.000
    C35      C        0.04615    0.45067    0.55732    1.000
    N53      N        0.10629    0.64592    0.55843    1.000
    C36      C        0.09053    0.58088    0.54387    1.000
    N54      N        0.07383    0.50918    0.52164    1.000
    Co7      Co       0.37076    0.23180    0.07478    1.000
    Co8      Co       0.53565    0.23065    0.40153    1.000
    N55      N        0.32653    0.25571    0.16584    1.000
    C37      C        0.31128    0.25749    0.21789    1.000
    N56      N        0.40505    0.24096    0.35676    1.000
    C38      C        0.35179    0.24883    0.31770    1.000
    N57      N        0.28571    0.25938    0.27626    1.000
    N58      N        0.50883    0.21660    0.11563    1.000
    C39      C        0.55906    0.20854    0.15729    1.000
    N59      N        0.59219    0.21447    0.31075    1.000
    C40      C        0.60233    0.20917    0.25813    1.000
    N60      N        0.62444    0.19965    0.19937    1.000
    N61      N        0.42443    0.21254    0.98370    1.000
    C41      C        0.49200    0.22109    0.95550    1.000
    N62      N        0.72527    0.25505    0.94924    1.000
    C42      C        0.64770    0.24358    0.93743    1.000
    N63      N        0.56192    0.23020    0.91733    1.000
    N64      N        0.34943    0.10890    0.08435    1.000
    C43      C        0.34167    0.04075    0.09093    1.000
    N65      N        0.43187    0.85398    0.10465    1.000
    C44      C        0.38360    0.90920    0.10200    1.000
    N66      N        0.32024    0.96589    0.10002    1.000
    N67      N        0.67091    0.21715    0.44276    1.000
    C45      C        0.75060    0.20856    0.44807    1.000
    N68      N        0.96090    0.24872    0.51555    1.000
    C46      C        0.89991    0.22500    0.48573    1.000
    N69      N        0.84108    0.19214    0.44738    1.000
    N70      N        0.48034    0.60573    0.08327    1.000
    C47      C        0.45385    0.54933    0.05732    1.000
    N71      N        0.39371    0.35408    0.05843    1.000
    C48      C        0.40947    0.41912    0.04387    1.000
    N72      N        0.42617    0.49082    0.02164    1.000
