# CIF file generated by openbabel 3.1.0, see https://openbabel.org
data_I
_chemical_name_common 'image0'
_cell_length_a 27.108
_cell_length_b 10.673
_cell_length_c 16.641
_cell_angle_alpha 90
_cell_angle_beta 104.241
_cell_angle_gamma 90
_space_group_name_H-M_alt 'P 1'
_space_group_name_Hall 'P 1'
loop_
    _symmetry_equiv_pos_as_xyz
    x,y,z
loop_
    _atom_site_label
    _atom_site_type_symbol
    _atom_site_fract_x
    _atom_site_fract_y
    _atom_site_fract_z
    _atom_site_occupancy
    Cd1      Cd       0.28708    0.79005    0.16713    1.000
    O1       O        0.22950    0.41360    0.45750    1.000
    O2       O        0.21830    0.50920    0.33810    1.000
    O3       O        0.27070    0.79000    0.29430    1.000
    O4       O        0.31860    0.62830    0.35180    1.000
    N1       N        0.12270    0.71680    0.06070    1.000
    N2       N        0.12970    0.63820    0.12750    1.000
    N3       N        0.20190    0.74010    0.12730    1.000
    N4       N        0.93420    0.69380    0.83900    1.000
    N5       N        0.94720    0.78790    0.79460    1.000
    N6       N        0.87230    0.71090    0.72890    1.000
    C1       C        0.06140    0.60770    0.94830    1.000
    C2       C        0.01110    0.57700    0.90990    1.000
    C3       C        0.00170    0.46720    0.86540    1.000
    H1       H        0.96820    0.44510    0.84080    1.000
    C4       C        0.04050    0.38860    0.85610    1.000
    H2       H        0.03310    0.31490    0.82570    1.000
    C5       C        0.09010    0.42040    0.89220    1.000
    H3       H        0.11660    0.36910    0.88590    1.000
    C6       C        0.10020    0.52990    0.93830    1.000
    H4       H        0.13380    0.55140    0.96290    1.000
    C7       C        0.07360    0.72220    0.00170    1.000
    H5       H        0.07290    0.79470    0.96630    1.000
    H6       H        0.04750    0.73350    0.03160    1.000
    C8       C        0.96700    0.65720    0.92020    1.000
    H7       H        0.94700    0.61110    0.95120    1.000
    H8       H        0.98010    0.73190    0.95150    1.000
    C9       C        0.17810    0.65810    0.16410    1.000
    H9       H        0.19440    0.61710    0.21270    1.000
    C10      C        0.16580    0.77350    0.06280    1.000
    H10      H        0.17030    0.83080    0.02310    1.000
    C11      C        0.90860    0.79520    0.72800    1.000
    H11      H        0.90700    0.85260    0.68540    1.000
    C12      C        0.88980    0.65000    0.79970    1.000
    H12      H        0.87280    0.58510    0.81880    1.000
    C13      C        0.24150    0.63420    0.45900    1.000
    C14      C        0.26640    0.73050    0.42750    1.000
    C15      C        0.27360    0.84280    0.46860    1.000
    H13      H        0.28950    0.90710    0.44680    1.000
    C16      C        0.22910    0.51260    0.41510    1.000
    C17      C        0.28670    0.71140    0.35190    1.000
    Cd2      Cd       0.78708    0.29005    0.16713    1.000
    O5       O        0.72950    0.91360    0.45750    1.000
    O6       O        0.71830    0.00920    0.33810    1.000
    O7       O        0.77070    0.29000    0.29430    1.000
    O8       O        0.81860    0.12830    0.35180    1.000
    N7       N        0.62270    0.21680    0.06070    1.000
    N8       N        0.62970    0.13820    0.12750    1.000
    N9       N        0.70190    0.24010    0.12730    1.000
    N10      N        0.43420    0.19380    0.83900    1.000
    N11      N        0.44720    0.28790    0.79460    1.000
    N12      N        0.37230    0.21090    0.72890    1.000
    C18      C        0.56140    0.10770    0.94830    1.000
    C19      C        0.51110    0.07700    0.90990    1.000
    C20      C        0.50170    0.96720    0.86540    1.000
    H14      H        0.46820    0.94510    0.84080    1.000
    C21      C        0.54050    0.88860    0.85610    1.000
    H15      H        0.53310    0.81490    0.82570    1.000
    C22      C        0.59010    0.92040    0.89220    1.000
    H16      H        0.61660    0.86910    0.88590    1.000
    C23      C        0.60020    0.02990    0.93830    1.000
    H17      H        0.63380    0.05140    0.96290    1.000
    C24      C        0.57360    0.22220    0.00170    1.000
    H18      H        0.57290    0.29470    0.96630    1.000
    H19      H        0.54750    0.23350    0.03160    1.000
    C25      C        0.46700    0.15720    0.92020    1.000
    H20      H        0.44700    0.11110    0.95120    1.000
    H21      H        0.48010    0.23190    0.95150    1.000
    C26      C        0.67810    0.15810    0.16410    1.000
    H22      H        0.69440    0.11710    0.21270    1.000
    C27      C        0.66580    0.27350    0.06280    1.000
    H23      H        0.67030    0.33080    0.02310    1.000
    C28      C        0.40860    0.29520    0.72800    1.000
    H24      H        0.40700    0.35260    0.68540    1.000
    C29      C        0.38980    0.15000    0.79970    1.000
    H25      H        0.37280    0.08510    0.81880    1.000
    C30      C        0.74150    0.13420    0.45900    1.000
    C31      C        0.76640    0.23050    0.42750    1.000
    C32      C        0.77360    0.34280    0.46860    1.000
    H26      H        0.78950    0.40710    0.44680    1.000
    C33      C        0.72910    0.01260    0.41510    1.000
    C34      C        0.78670    0.21140    0.35190    1.000
    Cd3      Cd       0.71292    0.79005    0.33287    1.000
    O9       O        0.77050    0.41360    0.04250    1.000
    O10      O        0.78170    0.50920    0.16190    1.000
    O11      O        0.72930    0.79000    0.20570    1.000
    O12      O        0.68140    0.62830    0.14820    1.000
    N13      N        0.87730    0.71680    0.43930    1.000
    N14      N        0.87030    0.63820    0.37250    1.000
    N15      N        0.79810    0.74010    0.37270    1.000
    N16      N        0.06580    0.69380    0.66100    1.000
    N17      N        0.05280    0.78790    0.70540    1.000
    N18      N        0.12770    0.71090    0.77110    1.000
    C35      C        0.93860    0.60770    0.55170    1.000
    C36      C        0.98890    0.57700    0.59010    1.000
    C37      C        0.99830    0.46720    0.63460    1.000
    H27      H        0.03180    0.44510    0.65920    1.000
    C38      C        0.95950    0.38860    0.64390    1.000
    H28      H        0.96690    0.31490    0.67430    1.000
    C39      C        0.90990    0.42040    0.60780    1.000
    H29      H        0.88340    0.36910    0.61410    1.000
    C40      C        0.89980    0.52990    0.56170    1.000
    H30      H        0.86620    0.55140    0.53710    1.000
    C41      C        0.92640    0.72220    0.49830    1.000
    H31      H        0.92710    0.79470    0.53370    1.000
    H32      H        0.95250    0.73350    0.46840    1.000
    C42      C        0.03300    0.65720    0.57980    1.000
    H33      H        0.05300    0.61110    0.54880    1.000
    H34      H        0.01990    0.73190    0.54850    1.000
    C43      C        0.82190    0.65810    0.33590    1.000
    H35      H        0.80560    0.61710    0.28730    1.000
    C44      C        0.83420    0.77350    0.43720    1.000
    H36      H        0.82970    0.83080    0.47690    1.000
    C45      C        0.09140    0.79520    0.77200    1.000
    H37      H        0.09300    0.85260    0.81460    1.000
    C46      C        0.11020    0.65000    0.70030    1.000
    H38      H        0.12720    0.58510    0.68120    1.000
    C47      C        0.75850    0.63420    0.04100    1.000
    C48      C        0.73360    0.73050    0.07250    1.000
    C49      C        0.72640    0.84280    0.03140    1.000
    H39      H        0.71050    0.90710    0.05320    1.000
    C50      C        0.77090    0.51260    0.08490    1.000
    C51      C        0.71330    0.71140    0.14810    1.000
    Cd4      Cd       0.21292    0.29005    0.33287    1.000
    O13      O        0.27050    0.91360    0.04250    1.000
    O14      O        0.28170    0.00920    0.16190    1.000
    O15      O        0.22930    0.29000    0.20570    1.000
    O16      O        0.18140    0.12830    0.14820    1.000
    N19      N        0.37730    0.21680    0.43930    1.000
    N20      N        0.37030    0.13820    0.37250    1.000
    N21      N        0.29810    0.24010    0.37270    1.000
    N22      N        0.56580    0.19380    0.66100    1.000
    N23      N        0.55280    0.28790    0.70540    1.000
    N24      N        0.62770    0.21090    0.77110    1.000
    C52      C        0.43860    0.10770    0.55170    1.000
    C53      C        0.48890    0.07700    0.59010    1.000
    C54      C        0.49830    0.96720    0.63460    1.000
    H40      H        0.53180    0.94510    0.65920    1.000
    C55      C        0.45950    0.88860    0.64390    1.000
    H41      H        0.46690    0.81490    0.67430    1.000
    C56      C        0.40990    0.92040    0.60780    1.000
    H42      H        0.38340    0.86910    0.61410    1.000
    C57      C        0.39980    0.02990    0.56170    1.000
    H43      H        0.36620    0.05140    0.53710    1.000
    C58      C        0.42640    0.22220    0.49830    1.000
    H44      H        0.42710    0.29470    0.53370    1.000
    H45      H        0.45250    0.23350    0.46840    1.000
    C59      C        0.53300    0.15720    0.57980    1.000
    H46      H        0.55300    0.11110    0.54880    1.000
    H47      H        0.51990    0.23190    0.54850    1.000
    C60      C        0.32190    0.15810    0.33590    1.000
    H48      H        0.30560    0.11710    0.28730    1.000
    C61      C        0.33420    0.27350    0.43720    1.000
    H49      H        0.32970    0.33080    0.47690    1.000
    C62      C        0.59140    0.29520    0.77200    1.000
    H50      H        0.59300    0.35260    0.81460    1.000
    C63      C        0.61020    0.15000    0.70030    1.000
    H51      H        0.62720    0.08510    0.68120    1.000
    C64      C        0.25850    0.13420    0.04100    1.000
    C65      C        0.23360    0.23050    0.07250    1.000
    C66      C        0.22640    0.34280    0.03140    1.000
    H52      H        0.21050    0.40710    0.05320    1.000
    C67      C        0.27090    0.01260    0.08490    1.000
    C68      C        0.21330    0.21140    0.14810    1.000
    Cd5      Cd       0.71292    0.20995    0.83287    1.000
    O17      O        0.77050    0.58640    0.54250    1.000
    O18      O        0.78170    0.49080    0.66190    1.000
    O19      O        0.72930    0.21000    0.70570    1.000
    O20      O        0.68140    0.37170    0.64820    1.000
    N25      N        0.87730    0.28320    0.93930    1.000
    N26      N        0.87030    0.36180    0.87250    1.000
    N27      N        0.79810    0.25990    0.87270    1.000
    N28      N        0.06580    0.30620    0.16100    1.000
    N29      N        0.05280    0.21210    0.20540    1.000
    N30      N        0.12770    0.28910    0.27110    1.000
    C69      C        0.93860    0.39230    0.05170    1.000
    C70      C        0.98890    0.42300    0.09010    1.000
    C71      C        0.99830    0.53280    0.13460    1.000
    H53      H        0.03180    0.55490    0.15920    1.000
    C72      C        0.95950    0.61140    0.14390    1.000
    H54      H        0.96690    0.68510    0.17430    1.000
    C73      C        0.90990    0.57960    0.10780    1.000
    H55      H        0.88340    0.63090    0.11410    1.000
    C74      C        0.89980    0.47010    0.06170    1.000
    H56      H        0.86620    0.44860    0.03710    1.000
    C75      C        0.92640    0.27780    0.99830    1.000
    H57      H        0.92710    0.20530    0.03370    1.000
    H58      H        0.95250    0.26650    0.96840    1.000
    C76      C        0.03300    0.34280    0.07980    1.000
    H59      H        0.05300    0.38890    0.04880    1.000
    H60      H        0.01990    0.26810    0.04850    1.000
    C77      C        0.82190    0.34190    0.83590    1.000
    H61      H        0.80560    0.38290    0.78730    1.000
    C78      C        0.83420    0.22650    0.93720    1.000
    H62      H        0.82970    0.16920    0.97690    1.000
    C79      C        0.09140    0.20480    0.27200    1.000
    H63      H        0.09300    0.14740    0.31460    1.000
    C80      C        0.11020    0.35000    0.20030    1.000
    H64      H        0.12720    0.41490    0.18120    1.000
    C81      C        0.75850    0.36580    0.54100    1.000
    C82      C        0.73360    0.26950    0.57250    1.000
    C83      C        0.72640    0.15720    0.53140    1.000
    H65      H        0.71050    0.09290    0.55320    1.000
    C84      C        0.77090    0.48740    0.58490    1.000
    C85      C        0.71330    0.28860    0.64810    1.000
    Cd6      Cd       0.21292    0.70995    0.83287    1.000
    O21      O        0.27050    0.08640    0.54250    1.000
    O22      O        0.28170    0.99080    0.66190    1.000
    O23      O        0.22930    0.71000    0.70570    1.000
    O24      O        0.18140    0.87170    0.64820    1.000
    N31      N        0.37730    0.78320    0.93930    1.000
    N32      N        0.37030    0.86180    0.87250    1.000
    N33      N        0.29810    0.75990    0.87270    1.000
    N34      N        0.56580    0.80620    0.16100    1.000
    N35      N        0.55280    0.71210    0.20540    1.000
    N36      N        0.62770    0.78910    0.27110    1.000
    C86      C        0.43860    0.89230    0.05170    1.000
    C87      C        0.48890    0.92300    0.09010    1.000
    C88      C        0.49830    0.03280    0.13460    1.000
    H66      H        0.53180    0.05490    0.15920    1.000
    C89      C        0.45950    0.11140    0.14390    1.000
    H67      H        0.46690    0.18510    0.17430    1.000
    C90      C        0.40990    0.07960    0.10780    1.000
    H68      H        0.38340    0.13090    0.11410    1.000
    C91      C        0.39980    0.97010    0.06170    1.000
    H69      H        0.36620    0.94860    0.03710    1.000
    C92      C        0.42640    0.77780    0.99830    1.000
    H70      H        0.42710    0.70530    0.03370    1.000
    H71      H        0.45250    0.76650    0.96840    1.000
    C93      C        0.53300    0.84280    0.07980    1.000
    H72      H        0.55300    0.88890    0.04880    1.000
    H73      H        0.51990    0.76810    0.04850    1.000
    C94      C        0.32190    0.84190    0.83590    1.000
    H74      H        0.30560    0.88290    0.78730    1.000
    C95      C        0.33420    0.72650    0.93720    1.000
    H75      H        0.32970    0.66920    0.97690    1.000
    C96      C        0.59140    0.70480    0.27200    1.000
    H76      H        0.59300    0.64740    0.31460    1.000
    C97      C        0.61020    0.85000    0.20030    1.000
    H77      H        0.62720    0.91490    0.18120    1.000
    C98      C        0.25850    0.86580    0.54100    1.000
    C99      C        0.23360    0.76950    0.57250    1.000
    C100     C        0.22640    0.65720    0.53140    1.000
    H78      H        0.21050    0.59290    0.55320    1.000
    C101     C        0.27090    0.98740    0.58490    1.000
    C102     C        0.21330    0.78860    0.64810    1.000
    Cd7      Cd       0.28708    0.20995    0.66713    1.000
    O25      O        0.22950    0.58640    0.95750    1.000
    O26      O        0.21830    0.49080    0.83810    1.000
    O27      O        0.27070    0.21000    0.79430    1.000
    O28      O        0.31860    0.37170    0.85180    1.000
    N37      N        0.12270    0.28320    0.56070    1.000
    N38      N        0.12970    0.36180    0.62750    1.000
    N39      N        0.20190    0.25990    0.62730    1.000
    N40      N        0.93420    0.30620    0.33900    1.000
    N41      N        0.94720    0.21210    0.29460    1.000
    N42      N        0.87230    0.28910    0.22890    1.000
    C103     C        0.06140    0.39230    0.44830    1.000
    C104     C        0.01110    0.42300    0.40990    1.000
    C105     C        0.00170    0.53280    0.36540    1.000
    H79      H        0.96820    0.55490    0.34080    1.000
    C106     C        0.04050    0.61140    0.35610    1.000
    H80      H        0.03310    0.68510    0.32570    1.000
    C107     C        0.09010    0.57960    0.39220    1.000
    H81      H        0.11660    0.63090    0.38590    1.000
    C108     C        0.10020    0.47010    0.43830    1.000
    H82      H        0.13380    0.44860    0.46290    1.000
    C109     C        0.07360    0.27780    0.50170    1.000
    H83      H        0.07290    0.20530    0.46630    1.000
    H84      H        0.04750    0.26650    0.53160    1.000
    C110     C        0.96700    0.34280    0.42020    1.000
    H85      H        0.94700    0.38890    0.45120    1.000
    H86      H        0.98010    0.26810    0.45150    1.000
    C111     C        0.17810    0.34190    0.66410    1.000
    H87      H        0.19440    0.38290    0.71270    1.000
    C112     C        0.16580    0.22650    0.56280    1.000
    H88      H        0.17030    0.16920    0.52310    1.000
    C113     C        0.90860    0.20480    0.22800    1.000
    H89      H        0.90700    0.14740    0.18540    1.000
    C114     C        0.88980    0.35000    0.29970    1.000
    H90      H        0.87280    0.41490    0.31880    1.000
    C115     C        0.24150    0.36580    0.95900    1.000
    C116     C        0.26640    0.26950    0.92750    1.000
    C117     C        0.27360    0.15720    0.96860    1.000
    H91      H        0.28950    0.09290    0.94680    1.000
    C118     C        0.22910    0.48740    0.91510    1.000
    C119     C        0.28670    0.28860    0.85190    1.000
    Cd8      Cd       0.78708    0.70995    0.66713    1.000
    O29      O        0.72950    0.08640    0.95750    1.000
    O30      O        0.71830    0.99080    0.83810    1.000
    O31      O        0.77070    0.71000    0.79430    1.000
    O32      O        0.81860    0.87170    0.85180    1.000
    N43      N        0.62270    0.78320    0.56070    1.000
    N44      N        0.62970    0.86180    0.62750    1.000
    N45      N        0.70190    0.75990    0.62730    1.000
    N46      N        0.43420    0.80620    0.33900    1.000
    N47      N        0.44720    0.71210    0.29460    1.000
    N48      N        0.37230    0.78910    0.22890    1.000
    C120     C        0.56140    0.89230    0.44830    1.000
    C121     C        0.51110    0.92300    0.40990    1.000
    C122     C        0.50170    0.03280    0.36540    1.000
    H92      H        0.46820    0.05490    0.34080    1.000
    C123     C        0.54050    0.11140    0.35610    1.000
    H93      H        0.53310    0.18510    0.32570    1.000
    C124     C        0.59010    0.07960    0.39220    1.000
    H94      H        0.61660    0.13090    0.38590    1.000
    C125     C        0.60020    0.97010    0.43830    1.000
    H95      H        0.63380    0.94860    0.46290    1.000
    C126     C        0.57360    0.77780    0.50170    1.000
    H96      H        0.57290    0.70530    0.46630    1.000
    H97      H        0.54750    0.76650    0.53160    1.000
    C127     C        0.46700    0.84280    0.42020    1.000
    H98      H        0.44700    0.88890    0.45120    1.000
    H99      H        0.48010    0.76810    0.45150    1.000
    C128     C        0.67810    0.84190    0.66410    1.000
    H100     H        0.69440    0.88290    0.71270    1.000
    C129     C        0.66580    0.72650    0.56280    1.000
    H101     H        0.67030    0.66920    0.52310    1.000
    C130     C        0.40860    0.70480    0.22800    1.000
    H102     H        0.40700    0.64740    0.18540    1.000
    C131     C        0.38980    0.85000    0.29970    1.000
    H103     H        0.37280    0.91490    0.31880    1.000
    C132     C        0.74150    0.86580    0.95900    1.000
    C133     C        0.76640    0.76950    0.92750    1.000
    C134     C        0.77360    0.65720    0.96860    1.000
    H104     H        0.78950    0.59290    0.94680    1.000
    C135     C        0.72910    0.98740    0.91510    1.000
    C136     C        0.78670    0.78860    0.85190    1.000
