# CIF file generated by openbabel 3.1.0, see https://openbabel.org
data_I
_chemical_name_common 'image0'
_cell_length_a 7.3635
_cell_length_b 14.1112
_cell_length_c 16.3906
_cell_angle_alpha 74.663
_cell_angle_beta 82.349
_cell_angle_gamma 89.878
_space_group_name_H-M_alt 'P 1'
_space_group_name_Hall 'P 1'
loop_
    _symmetry_equiv_pos_as_xyz
    x,y,z
loop_
    _atom_site_label
    _atom_site_type_symbol
    _atom_site_fract_x
    _atom_site_fract_y
    _atom_site_fract_z
    _atom_site_occupancy
    Pt1      Pt       0.49172    0.22837    0.03450    1.000
    N1       N        0.02130    0.09424    0.88385    1.000
    N2       N        0.17890    0.08126    0.02915    1.000
    N3       N        0.79920    0.38447    0.02452    1.000
    N4       N        0.21080    0.39621    0.00416    1.000
    N5       N        0.99460    0.48017    0.13980    1.000
    N6       N        0.79860    0.07500    0.03587    1.000
    C1       C        0.04210    0.06127    0.81365    1.000
    H1       H        0.05280    0.99410    0.82020    1.000
    C2       C        0.04850    0.12210    0.73235    1.000
    H2       H        0.06380    0.09610    0.68540    1.000
    C3       C        0.03180    0.22250    0.72096    1.000
    C4       C        0.01410    0.25680    0.79300    1.000
    H3       H        0.00510    0.32380    0.78780    1.000
    C5       C        0.00970    0.19184    0.87254    1.000
    H4       H        0.99820    0.21640    0.92020    1.000
    C6       C        0.02880    0.28630    0.63701    1.000
    C7       C        0.02100    0.33190    0.56528    1.000
    C8       C        0.29420    0.13261    0.03515    1.000
    C9       C        0.68610    0.32595    0.02987    1.000
    C10      C        0.31320    0.33441    0.01620    1.000
    C11      C        0.68020    0.12674    0.04247    1.000
    C12      C        0.14540    0.49270    0.17307    1.000
    H5       H        0.25230    0.51600    0.13600    1.000
    C13      C        0.15120    0.47290    0.25948    1.000
    H6       H        0.25940    0.48350    0.27970    1.000
    C14      C        0.99400    0.43710    0.31613    1.000
    C15      C        0.83620    0.42480    0.28215    1.000
    H7       H        0.72740    0.40170    0.31780    1.000
    C16      C        0.84280    0.44740    0.19444    1.000
    H8       H        0.73570    0.43930    0.17230    1.000
    C17      C        0.99840    0.40860    0.40690    1.000
    C18      C        0.00840    0.37690    0.48072    1.000
    Pt2      Pt       0.50828    0.77163    0.96550    1.000
    N7       N        0.97870    0.90576    0.11615    1.000
    N8       N        0.82110    0.91874    0.97085    1.000
    N9       N        0.20080    0.61553    0.97548    1.000
    N10      N        0.78920    0.60379    0.99584    1.000
    N11      N        0.00540    0.51983    0.86020    1.000
    N12      N        0.20140    0.92500    0.96413    1.000
    C19      C        0.95790    0.93873    0.18635    1.000
    H9       H        0.94720    0.00590    0.17980    1.000
    C20      C        0.95150    0.87790    0.26765    1.000
    H10      H        0.93620    0.90390    0.31460    1.000
    C21      C        0.96820    0.77750    0.27904    1.000
    C22      C        0.98590    0.74320    0.20700    1.000
    H11      H        0.99490    0.67620    0.21220    1.000
    C23      C        0.99030    0.80816    0.12746    1.000
    H12      H        0.00180    0.78360    0.07980    1.000
    C24      C        0.97120    0.71370    0.36299    1.000
    C25      C        0.97900    0.66810    0.43472    1.000
    C26      C        0.70580    0.86739    0.96485    1.000
    C27      C        0.31390    0.67405    0.97013    1.000
    C28      C        0.68680    0.66559    0.98380    1.000
    C29      C        0.31980    0.87326    0.95753    1.000
    C30      C        0.85460    0.50730    0.82693    1.000
    H13      H        0.74770    0.48400    0.86400    1.000
    C31      C        0.84880    0.52710    0.74052    1.000
    H14      H        0.74060    0.51650    0.72030    1.000
    C32      C        0.00600    0.56290    0.68387    1.000
    C33      C        0.16380    0.57520    0.71785    1.000
    H15      H        0.27260    0.59830    0.68220    1.000
    C34      C        0.15720    0.55260    0.80556    1.000
    H16      H        0.26430    0.56070    0.82770    1.000
    C35      C        0.00160    0.59140    0.59310    1.000
    C36      C        0.99160    0.62310    0.51928    1.000
    Fe1      Fe       0.00000    0.50000    0.00000    1.000
    Fe2      Fe       0.00000    0.00000    0.00000    1.000
