# CIF file generated by openbabel 3.1.0, see https://openbabel.org
data_I
_chemical_name_common 'QEYWUN_clean'
_cell_length_a 10.0936
_cell_length_b 12.5108
_cell_length_c 15.1721
_cell_angle_alpha 90
_cell_angle_beta 90
_cell_angle_gamma 90
_space_group_name_H-M_alt 'P 1'
_space_group_name_Hall 'P 1'
loop_
    _symmetry_equiv_pos_as_xyz
    x,y,z
loop_
    _atom_site_label
    _atom_site_type_symbol
    _atom_site_fract_x
    _atom_site_fract_y
    _atom_site_fract_z
    _atom_site_occupancy
    Cd1      Cd       0.00000    0.50000    0.00000    1.000
    Cd2      Cd       0.50000    0.50000    0.50000    1.000
    Cd3      Cd       0.00000    0.00000    0.50000    1.000
    Cd4      Cd       0.50000    0.00000    0.00000    1.000
    H1       H        0.37890    0.75930    0.05790    1.000
    H2       H        0.63750    0.77620    0.87070    1.000
    H3       H        0.51870    0.49800    0.88740    1.000
    H4       H        0.44420    0.47920    0.72920    1.000
    H5       H        0.71590    0.64890    0.61600    1.000
    H6       H        0.12110    0.24070    0.55790    1.000
    H7       H        0.86250    0.22380    0.37070    1.000
    H8       H        0.98130    0.50200    0.38740    1.000
    H9       H        0.05580    0.52080    0.22920    1.000
    H10      H        0.78410    0.35110    0.11600    1.000
    H11      H        0.62110    0.25930    0.44210    1.000
    H12      H        0.36250    0.27620    0.62930    1.000
    H13      H        0.48130    0.99800    0.61260    1.000
    H14      H        0.55580    0.97920    0.77080    1.000
    H15      H        0.28410    0.14890    0.88400    1.000
    H16      H        0.87890    0.74070    0.94210    1.000
    H17      H        0.13750    0.72380    0.12930    1.000
    H18      H        0.01870    0.00200    0.11260    1.000
    H19      H        0.94420    0.02080    0.27080    1.000
    H20      H        0.21590    0.85110    0.38400    1.000
    H21      H        0.62110    0.24070    0.94210    1.000
    H22      H        0.36250    0.22380    0.12930    1.000
    H23      H        0.48130    0.50200    0.11260    1.000
    H24      H        0.55580    0.52080    0.27080    1.000
    H25      H        0.28410    0.35110    0.38400    1.000
    H26      H        0.87890    0.75930    0.44210    1.000
    H27      H        0.13750    0.77620    0.62930    1.000
    H28      H        0.01870    0.49800    0.61260    1.000
    H29      H        0.94420    0.47920    0.77080    1.000
    H30      H        0.21590    0.64890    0.88400    1.000
    H31      H        0.37890    0.74070    0.55790    1.000
    H32      H        0.63750    0.72380    0.37070    1.000
    H33      H        0.51870    0.00200    0.38740    1.000
    H34      H        0.44420    0.02080    0.22920    1.000
    H35      H        0.71590    0.85110    0.11600    1.000
    H36      H        0.12110    0.25930    0.05790    1.000
    H37      H        0.86250    0.27620    0.87070    1.000
    H38      H        0.98130    0.99800    0.88740    1.000
    H39      H        0.05580    0.97920    0.72920    1.000
    H40      H        0.78410    0.14890    0.61600    1.000
    C1       C        0.43590    0.73990    0.01240    1.000
    C2       C        0.57630    0.75110    0.91160    1.000
    C3       C        0.58480    0.55350    0.87552    1.000
    C4       C        0.72100    0.50960    0.90550    1.000
    C5       C        0.51610    0.52400    0.71890    1.000
    C6       C        0.66500    0.61610    0.65940    1.000
    C7       C        0.06410    0.26010    0.51240    1.000
    C8       C        0.92370    0.24890    0.41160    1.000
    C9       C        0.91520    0.44650    0.37552    1.000
    C10      C        0.77900    0.49040    0.40550    1.000
    C11      C        0.98390    0.47600    0.21890    1.000
    C12      C        0.83500    0.38390    0.15940    1.000
    C13      C        0.56410    0.23990    0.48760    1.000
    C14      C        0.42370    0.25110    0.58840    1.000
    C15      C        0.41520    0.05350    0.62448    1.000
    C16      C        0.27900    0.00960    0.59450    1.000
    C17      C        0.48390    0.02400    0.78110    1.000
    C18      C        0.33500    0.11610    0.84060    1.000
    C19      C        0.93590    0.76010    0.98760    1.000
    C20      C        0.07630    0.74890    0.08840    1.000
    C21      C        0.08480    0.94650    0.12448    1.000
    C22      C        0.22100    0.99040    0.09450    1.000
    C23      C        0.01610    0.97600    0.28110    1.000
    C24      C        0.16500    0.88390    0.34060    1.000
    C25      C        0.56410    0.26010    0.98760    1.000
    C26      C        0.42370    0.24890    0.08840    1.000
    C27      C        0.41520    0.44650    0.12448    1.000
    C28      C        0.27900    0.49040    0.09450    1.000
    C29      C        0.48390    0.47600    0.28110    1.000
    C30      C        0.33500    0.38390    0.34060    1.000
    C31      C        0.93590    0.73990    0.48760    1.000
    C32      C        0.07630    0.75110    0.58840    1.000
    C33      C        0.08480    0.55350    0.62448    1.000
    C34      C        0.22100    0.50960    0.59450    1.000
    C35      C        0.01610    0.52400    0.78110    1.000
    C36      C        0.16500    0.61610    0.84060    1.000
    C37      C        0.43590    0.76010    0.51240    1.000
    C38      C        0.57630    0.74890    0.41160    1.000
    C39      C        0.58480    0.94650    0.37552    1.000
    C40      C        0.72100    0.99040    0.40550    1.000
    C41      C        0.51610    0.97600    0.21890    1.000
    C42      C        0.66500    0.88390    0.15940    1.000
    C43      C        0.06410    0.23990    0.01240    1.000
    C44      C        0.92370    0.25110    0.91160    1.000
    C45      C        0.91520    0.05350    0.87552    1.000
    C46      C        0.77900    0.00960    0.90550    1.000
    C47      C        0.98390    0.02400    0.71890    1.000
    C48      C        0.83500    0.11610    0.65940    1.000
    N1       N        0.54110    0.65044    0.92032    1.000
    N2       N        0.44870    0.64120    0.98536    1.000
    N3       N        0.51230    0.81180    0.96900    1.000
    N4       N        0.58850    0.56983    0.78077    1.000
    N5       N        0.68740    0.62880    0.74346    1.000
    N6       N        0.56080    0.55100    0.64056    1.000
    N7       N        0.95890    0.34956    0.42032    1.000
    N8       N        0.05130    0.35880    0.48536    1.000
    N9       N        0.98770    0.18820    0.46900    1.000
    N10      N        0.91150    0.43017    0.28077    1.000
    N11      N        0.81260    0.37120    0.24346    1.000
    N12      N        0.93920    0.44900    0.14056    1.000
    N13      N        0.45890    0.15044    0.57968    1.000
    N14      N        0.55130    0.14120    0.51464    1.000
    N15      N        0.48770    0.31180    0.53100    1.000
    N16      N        0.41150    0.06983    0.71923    1.000
    N17      N        0.31260    0.12880    0.75654    1.000
    N18      N        0.43920    0.05100    0.85944    1.000
    N19      N        0.04110    0.84956    0.07968    1.000
    N20      N        0.94870    0.85880    0.01464    1.000
    N21      N        0.01230    0.68820    0.03100    1.000
    N22      N        0.08850    0.93017    0.21923    1.000
    N23      N        0.18740    0.87120    0.25654    1.000
    N24      N        0.06080    0.94900    0.35944    1.000
    N25      N        0.45890    0.34956    0.07968    1.000
    N26      N        0.55130    0.35880    0.01464    1.000
    N27      N        0.48770    0.18820    0.03100    1.000
    N28      N        0.41150    0.43017    0.21923    1.000
    N29      N        0.31260    0.37120    0.25654    1.000
    N30      N        0.43920    0.44900    0.35944    1.000
    N31      N        0.04110    0.65044    0.57968    1.000
    N32      N        0.94870    0.64120    0.51464    1.000
    N33      N        0.01230    0.81180    0.53100    1.000
    N34      N        0.08850    0.56983    0.71923    1.000
    N35      N        0.18740    0.62880    0.75654    1.000
    N36      N        0.06080    0.55100    0.85944    1.000
    N37      N        0.54110    0.84956    0.42032    1.000
    N38      N        0.44870    0.85880    0.48536    1.000
    N39      N        0.51230    0.68820    0.46900    1.000
    N40      N        0.58850    0.93017    0.28077    1.000
    N41      N        0.68740    0.87120    0.24346    1.000
    N42      N        0.56080    0.94900    0.14056    1.000
    N43      N        0.95890    0.15044    0.92032    1.000
    N44      N        0.05130    0.14120    0.98536    1.000
    N45      N        0.98770    0.31180    0.96900    1.000
    N46      N        0.91150    0.06983    0.78077    1.000
    N47      N        0.81260    0.12880    0.74346    1.000
    N48      N        0.93920    0.05100    0.64056    1.000
    O1       O        0.77760    0.55289    0.96912    1.000
    O2       O        0.75930    0.43288    0.86127    1.000
    O3       O        0.72240    0.44711    0.46912    1.000
    O4       O        0.74070    0.56712    0.36127    1.000
    O5       O        0.22240    0.05289    0.53088    1.000
    O6       O        0.24070    0.93288    0.63873    1.000
    O7       O        0.27760    0.94711    0.03088    1.000
    O8       O        0.25930    0.06712    0.13873    1.000
    O9       O        0.22240    0.44711    0.03088    1.000
    O10      O        0.24070    0.56712    0.13873    1.000
    O11      O        0.27760    0.55289    0.53088    1.000
    O12      O        0.25930    0.43288    0.63873    1.000
    O13      O        0.77760    0.94711    0.46912    1.000
    O14      O        0.75930    0.06712    0.36127    1.000
    O15      O        0.72240    0.05289    0.96912    1.000
    O16      O        0.74070    0.93288    0.86127    1.000
