# CIF file generated by openbabel 3.1.0, see https://openbabel.org
data_I
_chemical_name_common 'WUNSII_charged'
_cell_length_a 15.916
_cell_length_b 15.916
_cell_length_c 21.495
_cell_angle_alpha 90
_cell_angle_beta 90
_cell_angle_gamma 90
_space_group_name_H-M_alt 'P 1'
_space_group_name_Hall 'P 1'
loop_
    _symmetry_equiv_pos_as_xyz
    x,y,z
loop_
    _atom_site_label
    _atom_site_type_symbol
    _atom_site_fract_x
    _atom_site_fract_y
    _atom_site_fract_z
    _atom_site_occupancy
    Cd1      Cd       0.05908    0.94092    0.75000    1.000
    Cd2      Cd       0.94092    0.05908    0.25000    1.000
    Cd3      Cd       0.55908    0.55908    0.50000    1.000
    Cd4      Cd       0.44092    0.44092    0.00000    1.000
    H1       H        0.74210    0.49710    0.42870    1.000
    H2       H        0.85000    0.40110    0.43810    1.000
    H3       H        0.76160    0.34220    0.60760    1.000
    H4       H        0.65500    0.43910    0.59190    1.000
    H5       H        0.96440    0.33620    0.46260    1.000
    H6       H        0.06620    0.23170    0.47440    1.000
    H7       H        0.04530    0.12070    0.54210    1.000
    H8       H        0.82290    0.22190    0.59520    1.000
    H9       H        0.79740    0.00660    0.79260    1.000
    H10      H        0.69860    0.91230    0.83720    1.000
    H11      H        0.64580    0.80090    0.78100    1.000
    H12      H        0.80490    0.85860    0.63960    1.000
    H13      H        0.58410    0.71610    0.71640    1.000
    H14      H        0.53520    0.61330    0.64970    1.000
    H15      H        0.73050    0.63830    0.54110    1.000
    H16      H        0.78750    0.73960    0.60480    1.000
    H17      H        0.73780    0.09220    0.65170    1.000
    H18      H        0.74530    0.02750    0.60220    1.000
    H19      H        0.25790    0.50290    0.92870    1.000
    H20      H        0.15000    0.59890    0.93810    1.000
    H21      H        0.23840    0.65780    0.10760    1.000
    H22      H        0.34500    0.56090    0.09190    1.000
    H23      H        0.03560    0.66380    0.96260    1.000
    H24      H        0.93380    0.76830    0.97440    1.000
    H25      H        0.95470    0.87930    0.04210    1.000
    H26      H        0.17710    0.77810    0.09520    1.000
    H27      H        0.20260    0.99340    0.29260    1.000
    H28      H        0.30140    0.08770    0.33720    1.000
    H29      H        0.35420    0.19910    0.28100    1.000
    H30      H        0.19510    0.14140    0.13960    1.000
    H31      H        0.41590    0.28390    0.21640    1.000
    H32      H        0.46480    0.38670    0.14970    1.000
    H33      H        0.26950    0.36170    0.04110    1.000
    H34      H        0.21250    0.26040    0.10480    1.000
    H35      H        0.26220    0.90780    0.15170    1.000
    H36      H        0.25470    0.97250    0.10220    1.000
    H37      H        0.00290    0.24210    0.17870    1.000
    H38      H        0.09890    0.35000    0.18810    1.000
    H39      H        0.15780    0.26160    0.35760    1.000
    H40      H        0.06090    0.15500    0.34190    1.000
    H41      H        0.16380    0.46440    0.21260    1.000
    H42      H        0.26830    0.56620    0.22440    1.000
    H43      H        0.37930    0.54530    0.29210    1.000
    H44      H        0.27810    0.32290    0.34520    1.000
    H45      H        0.49340    0.29740    0.54260    1.000
    H46      H        0.58770    0.19860    0.58720    1.000
    H47      H        0.69910    0.14580    0.53100    1.000
    H48      H        0.64140    0.30490    0.38960    1.000
    H49      H        0.78390    0.08410    0.46640    1.000
    H50      H        0.88670    0.03520    0.39970    1.000
    H51      H        0.86170    0.23050    0.29110    1.000
    H52      H        0.76040    0.28750    0.35480    1.000
    H53      H        0.40780    0.23780    0.40170    1.000
    H54      H        0.47250    0.24530    0.35220    1.000
    H55      H        0.99710    0.75790    0.67870    1.000
    H56      H        0.90110    0.65000    0.68810    1.000
    H57      H        0.84220    0.73840    0.85760    1.000
    H58      H        0.93910    0.84500    0.84190    1.000
    H59      H        0.83620    0.53560    0.71260    1.000
    H60      H        0.73170    0.43380    0.72440    1.000
    H61      H        0.62070    0.45470    0.79210    1.000
    H62      H        0.72190    0.67710    0.84520    1.000
    H63      H        0.50660    0.70260    0.04260    1.000
    H64      H        0.41230    0.80140    0.08720    1.000
    H65      H        0.30090    0.85420    0.03100    1.000
    H66      H        0.35860    0.69510    0.88960    1.000
    H67      H        0.21610    0.91590    0.96640    1.000
    H68      H        0.11330    0.96480    0.89970    1.000
    H69      H        0.13830    0.76950    0.79110    1.000
    H70      H        0.23960    0.71250    0.85480    1.000
    H71      H        0.59220    0.76220    0.90170    1.000
    H72      H        0.52750    0.75470    0.85220    1.000
    H73      H        0.75790    0.99710    0.32130    1.000
    H74      H        0.65000    0.90110    0.31190    1.000
    H75      H        0.73840    0.84220    0.14240    1.000
    H76      H        0.84500    0.93910    0.15810    1.000
    H77      H        0.53560    0.83620    0.28740    1.000
    H78      H        0.43380    0.73170    0.27560    1.000
    H79      H        0.45470    0.62070    0.20790    1.000
    H80      H        0.67710    0.72190    0.15480    1.000
    H81      H        0.70260    0.50660    0.95740    1.000
    H82      H        0.80140    0.41230    0.91280    1.000
    H83      H        0.85420    0.30090    0.96900    1.000
    H84      H        0.69510    0.35860    0.11040    1.000
    H85      H        0.91590    0.21610    0.03360    1.000
    H86      H        0.96480    0.11330    0.10030    1.000
    H87      H        0.76950    0.13830    0.20890    1.000
    H88      H        0.71250    0.23960    0.14520    1.000
    H89      H        0.76220    0.59220    0.09830    1.000
    H90      H        0.75470    0.52750    0.14780    1.000
    H91      H        0.24210    0.00290    0.82130    1.000
    H92      H        0.35000    0.09890    0.81190    1.000
    H93      H        0.26160    0.15780    0.64240    1.000
    H94      H        0.15500    0.06090    0.65810    1.000
    H95      H        0.46440    0.16380    0.78740    1.000
    H96      H        0.56620    0.26830    0.77560    1.000
    H97      H        0.54530    0.37930    0.70790    1.000
    H98      H        0.32290    0.27810    0.65480    1.000
    H99      H        0.29740    0.49340    0.45740    1.000
    H100     H        0.19860    0.58770    0.41280    1.000
    H101     H        0.14580    0.69910    0.46900    1.000
    H102     H        0.30490    0.64140    0.61040    1.000
    H103     H        0.08410    0.78390    0.53360    1.000
    H104     H        0.03520    0.88670    0.60030    1.000
    H105     H        0.23050    0.86170    0.70890    1.000
    H106     H        0.28750    0.76040    0.64520    1.000
    H107     H        0.23780    0.40780    0.59830    1.000
    H108     H        0.24530    0.47250    0.64780    1.000
    H109     H        0.49710    0.74210    0.57130    1.000
    H110     H        0.40110    0.85000    0.56190    1.000
    H111     H        0.34220    0.76160    0.39240    1.000
    H112     H        0.43910    0.65500    0.40810    1.000
    H113     H        0.33620    0.96440    0.53740    1.000
    H114     H        0.23170    0.06620    0.52560    1.000
    H115     H        0.12070    0.04530    0.45790    1.000
    H116     H        0.22190    0.82290    0.40480    1.000
    H117     H        0.00660    0.79740    0.20740    1.000
    H118     H        0.91230    0.69860    0.16280    1.000
    H119     H        0.80090    0.64580    0.21900    1.000
    H120     H        0.85860    0.80490    0.36040    1.000
    H121     H        0.71610    0.58410    0.28360    1.000
    H122     H        0.61330    0.53520    0.35030    1.000
    H123     H        0.63830    0.73050    0.45890    1.000
    H124     H        0.73960    0.78750    0.39520    1.000
    H125     H        0.09220    0.73780    0.34830    1.000
    H126     H        0.02750    0.74530    0.39780    1.000
    H127     H        0.50290    0.25790    0.07130    1.000
    H128     H        0.59890    0.15000    0.06190    1.000
    H129     H        0.65780    0.23840    0.89240    1.000
    H130     H        0.56090    0.34500    0.90810    1.000
    H131     H        0.66380    0.03560    0.03740    1.000
    H132     H        0.76830    0.93380    0.02560    1.000
    H133     H        0.87930    0.95470    0.95790    1.000
    H134     H        0.77810    0.17710    0.90480    1.000
    H135     H        0.99340    0.20260    0.70740    1.000
    H136     H        0.08770    0.30140    0.66280    1.000
    H137     H        0.19910    0.35420    0.71900    1.000
    H138     H        0.14140    0.19510    0.86040    1.000
    H139     H        0.28390    0.41590    0.78360    1.000
    H140     H        0.38670    0.46480    0.85030    1.000
    H141     H        0.36170    0.26950    0.95890    1.000
    H142     H        0.26040    0.21250    0.89520    1.000
    H143     H        0.90780    0.26220    0.84830    1.000
    H144     H        0.97250    0.25470    0.89780    1.000
    C1       C        0.74490    0.46380    0.46530    1.000
    C2       C        0.81000    0.40640    0.47070    1.000
    C3       C        0.81680    0.35720    0.52300    1.000
    C4       C        0.75840    0.37190    0.56930    1.000
    C5       C        0.69490    0.43050    0.55960    1.000
    C6       C        0.88230    0.29140    0.52900    1.000
    C7       C        0.95600    0.29240    0.49190    1.000
    C8       C        0.01610    0.22920    0.49830    1.000
    C9       C        0.00410    0.16360    0.53860    1.000
    C10      C        0.93080    0.16010    0.57460    1.000
    C11      C        0.87180    0.22400    0.56990    1.000
    C12      C        0.92330    0.09130    0.61830    1.000
    C13      C        0.87220    0.99490    0.68060    1.000
    C14      C        0.81010    0.94090    0.71140    1.000
    C15      C        0.77890    0.95850    0.77020    1.000
    C16      C        0.71840    0.90260    0.79620    1.000
    C17      C        0.68830    0.83550    0.76360    1.000
    C18      C        0.72070    0.81790    0.70390    1.000
    C19      C        0.78190    0.87080    0.67930    1.000
    C20      C        0.69030    0.74520    0.66660    1.000
    C21      C        0.61500    0.70280    0.67990    1.000
    C22      C        0.58590    0.64140    0.63930    1.000
    C23      C        0.69950    0.65580    0.57660    1.000
    C24      C        0.73390    0.71680    0.61440    1.000
    C25      C        0.25510    0.53620    0.96530    1.000
    C26      C        0.19000    0.59360    0.97070    1.000
    C27      C        0.18320    0.64280    0.02300    1.000
    C28      C        0.24160    0.62810    0.06930    1.000
    C29      C        0.30510    0.56950    0.05960    1.000
    C30      C        0.11770    0.70860    0.02900    1.000
    C31      C        0.04400    0.70760    0.99190    1.000
    C32      C        0.98390    0.77080    0.99830    1.000
    C33      C        0.99590    0.83640    0.03860    1.000
    C34      C        0.06920    0.83990    0.07460    1.000
    C35      C        0.12820    0.77600    0.06990    1.000
    C36      C        0.07670    0.90870    0.11830    1.000
    C37      C        0.12780    0.00510    0.18060    1.000
    C38      C        0.18990    0.05910    0.21140    1.000
    C39      C        0.22110    0.04150    0.27020    1.000
    C40      C        0.28160    0.09740    0.29620    1.000
    C41      C        0.31170    0.16450    0.26360    1.000
    C42      C        0.27930    0.18210    0.20390    1.000
    C43      C        0.21810    0.12920    0.17930    1.000
    C44      C        0.30970    0.25480    0.16660    1.000
    C45      C        0.38500    0.29720    0.17990    1.000
    C46      C        0.41410    0.35860    0.13930    1.000
    C47      C        0.30050    0.34420    0.07660    1.000
    C48      C        0.26610    0.28320    0.11440    1.000
    C49      C        0.03620    0.24490    0.21530    1.000
    C50      C        0.09360    0.31000    0.22070    1.000
    C51      C        0.14280    0.31680    0.27300    1.000
    C52      C        0.12810    0.25840    0.31930    1.000
    C53      C        0.06950    0.19490    0.30960    1.000
    C54      C        0.20860    0.38230    0.27900    1.000
    C55      C        0.20760    0.45600    0.24190    1.000
    C56      C        0.27080    0.51610    0.24830    1.000
    C57      C        0.33640    0.50410    0.28860    1.000
    C58      C        0.33990    0.43080    0.32460    1.000
    C59      C        0.27600    0.37180    0.31990    1.000
    C60      C        0.40870    0.42330    0.36830    1.000
    C61      C        0.50510    0.37220    0.43060    1.000
    C62      C        0.55910    0.31010    0.46140    1.000
    C63      C        0.54150    0.27890    0.52020    1.000
    C64      C        0.59740    0.21840    0.54620    1.000
    C65      C        0.66450    0.18830    0.51360    1.000
    C66      C        0.68210    0.22070    0.45390    1.000
    C67      C        0.62920    0.28190    0.42930    1.000
    C68      C        0.75480    0.19030    0.41660    1.000
    C69      C        0.79720    0.11500    0.42990    1.000
    C70      C        0.85860    0.08590    0.38930    1.000
    C71      C        0.84420    0.19950    0.32660    1.000
    C72      C        0.78320    0.23390    0.36440    1.000
    C73      C        0.96380    0.75510    0.71530    1.000
    C74      C        0.90640    0.69000    0.72070    1.000
    C75      C        0.85720    0.68320    0.77300    1.000
    C76      C        0.87190    0.74160    0.81930    1.000
    C77      C        0.93050    0.80510    0.80960    1.000
    C78      C        0.79140    0.61770    0.77900    1.000
    C79      C        0.79240    0.54400    0.74190    1.000
    C80      C        0.72920    0.48390    0.74830    1.000
    C81      C        0.66360    0.49590    0.78860    1.000
    C82      C        0.66010    0.56920    0.82460    1.000
    C83      C        0.72400    0.62820    0.81990    1.000
    C84      C        0.59130    0.57670    0.86830    1.000
    C85      C        0.49490    0.62780    0.93060    1.000
    C86      C        0.44090    0.68990    0.96140    1.000
    C87      C        0.45850    0.72110    0.02020    1.000
    C88      C        0.40260    0.78160    0.04620    1.000
    C89      C        0.33550    0.81170    0.01360    1.000
    C90      C        0.31790    0.77930    0.95390    1.000
    C91      C        0.37080    0.71810    0.92930    1.000
    C92      C        0.24520    0.80970    0.91660    1.000
    C93      C        0.20280    0.88500    0.92990    1.000
    C94      C        0.14140    0.91410    0.88930    1.000
    C95      C        0.15580    0.80050    0.82660    1.000
    C96      C        0.21680    0.76610    0.86440    1.000
    C97      C        0.75510    0.96380    0.28470    1.000
    C98      C        0.69000    0.90640    0.27930    1.000
    C99      C        0.68320    0.85720    0.22700    1.000
    C100     C        0.74160    0.87190    0.18070    1.000
    C101     C        0.80510    0.93050    0.19040    1.000
    C102     C        0.61770    0.79140    0.22100    1.000
    C103     C        0.54400    0.79240    0.25810    1.000
    C104     C        0.48390    0.72920    0.25170    1.000
    C105     C        0.49590    0.66360    0.21140    1.000
    C106     C        0.56920    0.66010    0.17540    1.000
    C107     C        0.62820    0.72400    0.18010    1.000
    C108     C        0.57670    0.59130    0.13170    1.000
    C109     C        0.62780    0.49490    0.06940    1.000
    C110     C        0.68990    0.44090    0.03860    1.000
    C111     C        0.72110    0.45850    0.97980    1.000
    C112     C        0.78160    0.40260    0.95380    1.000
    C113     C        0.81170    0.33550    0.98640    1.000
    C114     C        0.77930    0.31790    0.04610    1.000
    C115     C        0.71810    0.37080    0.07070    1.000
    C116     C        0.80970    0.24520    0.08340    1.000
    C117     C        0.88500    0.20280    0.07010    1.000
    C118     C        0.91410    0.14140    0.11070    1.000
    C119     C        0.80050    0.15580    0.17340    1.000
    C120     C        0.76610    0.21680    0.13560    1.000
    C121     C        0.24490    0.03620    0.78470    1.000
    C122     C        0.31000    0.09360    0.77930    1.000
    C123     C        0.31680    0.14280    0.72700    1.000
    C124     C        0.25840    0.12810    0.68070    1.000
    C125     C        0.19490    0.06950    0.69040    1.000
    C126     C        0.38230    0.20860    0.72100    1.000
    C127     C        0.45600    0.20760    0.75810    1.000
    C128     C        0.51610    0.27080    0.75170    1.000
    C129     C        0.50410    0.33640    0.71140    1.000
    C130     C        0.43080    0.33990    0.67540    1.000
    C131     C        0.37180    0.27600    0.68010    1.000
    C132     C        0.42330    0.40870    0.63170    1.000
    C133     C        0.37220    0.50510    0.56940    1.000
    C134     C        0.31010    0.55910    0.53860    1.000
    C135     C        0.27890    0.54150    0.47980    1.000
    C136     C        0.21840    0.59740    0.45380    1.000
    C137     C        0.18830    0.66450    0.48640    1.000
    C138     C        0.22070    0.68210    0.54610    1.000
    C139     C        0.28190    0.62920    0.57070    1.000
    C140     C        0.19030    0.75480    0.58340    1.000
    C141     C        0.11500    0.79720    0.57010    1.000
    C142     C        0.08590    0.85860    0.61070    1.000
    C143     C        0.19950    0.84420    0.67340    1.000
    C144     C        0.23390    0.78320    0.63560    1.000
    C145     C        0.46380    0.74490    0.53470    1.000
    C146     C        0.40640    0.81000    0.52930    1.000
    C147     C        0.35720    0.81680    0.47700    1.000
    C148     C        0.37190    0.75840    0.43070    1.000
    C149     C        0.43050    0.69490    0.44040    1.000
    C150     C        0.29140    0.88230    0.47100    1.000
    C151     C        0.29240    0.95600    0.50810    1.000
    C152     C        0.22920    0.01610    0.50170    1.000
    C153     C        0.16360    0.00410    0.46140    1.000
    C154     C        0.16010    0.93080    0.42540    1.000
    C155     C        0.22400    0.87180    0.43010    1.000
    C156     C        0.09130    0.92330    0.38170    1.000
    C157     C        0.99490    0.87220    0.31940    1.000
    C158     C        0.94090    0.81010    0.28860    1.000
    C159     C        0.95850    0.77890    0.22980    1.000
    C160     C        0.90260    0.71840    0.20380    1.000
    C161     C        0.83550    0.68830    0.23640    1.000
    C162     C        0.81790    0.72070    0.29610    1.000
    C163     C        0.87080    0.78190    0.32070    1.000
    C164     C        0.74520    0.69030    0.33340    1.000
    C165     C        0.70280    0.61500    0.32010    1.000
    C166     C        0.64140    0.58590    0.36070    1.000
    C167     C        0.65580    0.69950    0.42340    1.000
    C168     C        0.71680    0.73390    0.38560    1.000
    C169     C        0.53620    0.25510    0.03470    1.000
    C170     C        0.59360    0.19000    0.02930    1.000
    C171     C        0.64280    0.18320    0.97700    1.000
    C172     C        0.62810    0.24160    0.93070    1.000
    C173     C        0.56950    0.30510    0.94040    1.000
    C174     C        0.70860    0.11770    0.97100    1.000
    C175     C        0.70760    0.04400    0.00810    1.000
    C176     C        0.77080    0.98390    0.00170    1.000
    C177     C        0.83640    0.99590    0.96140    1.000
    C178     C        0.83990    0.06920    0.92540    1.000
    C179     C        0.77600    0.12820    0.93010    1.000
    C180     C        0.90870    0.07670    0.88170    1.000
    C181     C        0.00510    0.12780    0.81940    1.000
    C182     C        0.05910    0.18990    0.78860    1.000
    C183     C        0.04150    0.22110    0.72980    1.000
    C184     C        0.09740    0.28160    0.70380    1.000
    C185     C        0.16450    0.31170    0.73640    1.000
    C186     C        0.18210    0.27930    0.79610    1.000
    C187     C        0.12920    0.21810    0.82070    1.000
    C188     C        0.25480    0.30970    0.83340    1.000
    C189     C        0.29720    0.38500    0.82010    1.000
    C190     C        0.35860    0.41410    0.86070    1.000
    C191     C        0.34420    0.30050    0.92340    1.000
    C192     C        0.28320    0.26610    0.88560    1.000
    N1       N        0.98700    0.05410    0.64480    1.000
    N2       N        0.95510    0.99250    0.68380    1.000
    N3       N        0.85020    0.05530    0.63990    1.000
    N4       N        0.76920    0.07430    0.61890    1.000
    N5       N        0.62400    0.61970    0.58750    1.000
    N6       N        0.68680    0.47480    0.50820    1.000
    N7       N        0.01300    0.94590    0.14480    1.000
    N8       N        0.04490    0.00750    0.18380    1.000
    N9       N        0.14980    0.94470    0.13990    1.000
    N10      N        0.23080    0.92570    0.11890    1.000
    N11      N        0.37600    0.38030    0.08750    1.000
    N12      N        0.31320    0.52520    0.00820    1.000
    N13      N        0.44590    0.48700    0.39480    1.000
    N14      N        0.50750    0.45510    0.43380    1.000
    N15      N        0.44470    0.35020    0.38990    1.000
    N16      N        0.42570    0.26920    0.36890    1.000
    N17      N        0.88030    0.12400    0.33750    1.000
    N18      N        0.02520    0.18680    0.25820    1.000
    N19      N        0.55410    0.51300    0.89480    1.000
    N20      N        0.49250    0.54490    0.93380    1.000
    N21      N        0.55530    0.64980    0.88990    1.000
    N22      N        0.57430    0.73080    0.86890    1.000
    N23      N        0.11970    0.87600    0.83750    1.000
    N24      N        0.97480    0.81320    0.75820    1.000
    N25      N        0.51300    0.55410    0.10520    1.000
    N26      N        0.54490    0.49250    0.06620    1.000
    N27      N        0.64980    0.55530    0.11010    1.000
    N28      N        0.73080    0.57430    0.13110    1.000
    N29      N        0.87600    0.11970    0.16250    1.000
    N30      N        0.81320    0.97480    0.24180    1.000
    N31      N        0.48700    0.44590    0.60520    1.000
    N32      N        0.45510    0.50750    0.56620    1.000
    N33      N        0.35020    0.44470    0.61010    1.000
    N34      N        0.26920    0.42570    0.63110    1.000
    N35      N        0.12400    0.88030    0.66250    1.000
    N36      N        0.18680    0.02520    0.74180    1.000
    N37      N        0.05410    0.98700    0.35520    1.000
    N38      N        0.99250    0.95510    0.31620    1.000
    N39      N        0.05530    0.85020    0.36010    1.000
    N40      N        0.07430    0.76920    0.38110    1.000
    N41      N        0.61970    0.62400    0.41250    1.000
    N42      N        0.47480    0.68680    0.49180    1.000
    N43      N        0.94590    0.01300    0.85520    1.000
    N44      N        0.00750    0.04490    0.81620    1.000
    N45      N        0.94470    0.14980    0.86010    1.000
    N46      N        0.92570    0.23080    0.88110    1.000
    N47      N        0.38030    0.37600    0.91250    1.000
    N48      N        0.52520    0.31320    0.99180    1.000
    Cl1      Cl       0.73220    0.73220    0.00000    1.000
    O1       O        0.77870    0.65500    0.98010    1.000
    O2       O        0.77560    0.75490    0.05250    1.000
    O3       O        0.65500    0.77870    0.01990    1.000
    O4       O        0.75490    0.77560    0.94750    1.000
    Cl2      Cl       0.12264    0.12264    0.00000    1.000
    O5       O        0.09780    0.17940    0.05110    1.000
    O6       O        0.10710    0.04580    0.02640    1.000
    O7       O        0.17940    0.09780    0.94890    1.000
    O8       O        0.04580    0.10710    0.97360    1.000
    Cl3      Cl       0.26780    0.26780    0.50000    1.000
    O9       O        0.22130    0.34500    0.48010    1.000
    O10      O        0.22440    0.24510    0.55250    1.000
    O11      O        0.34500    0.22130    0.51990    1.000
    O12      O        0.24510    0.22440    0.44750    1.000
    Cl4      Cl       0.87736    0.87736    0.50000    1.000
    O13      O        0.90220    0.82060    0.55110    1.000
    O14      O        0.89290    0.95420    0.52640    1.000
    O15      O        0.82060    0.90220    0.44890    1.000
    O16      O        0.95420    0.89290    0.47360    1.000
    Cl5      Cl       0.76780    0.23220    0.75000    1.000
    O17      O        0.84500    0.27870    0.73010    1.000
    O18      O        0.74510    0.27560    0.80250    1.000
    O19      O        0.72130    0.15500    0.76990    1.000
    O20      O        0.72440    0.25490    0.69750    1.000
    Cl6      Cl       0.37736    0.62264    0.75000    1.000
    O21      O        0.32060    0.59780    0.80110    1.000
    O22      O        0.45420    0.60710    0.77640    1.000
    O23      O        0.40220    0.67940    0.69890    1.000
    O24      O        0.39290    0.54580    0.72360    1.000
    Cl7      Cl       0.23220    0.76780    0.25000    1.000
    O25      O        0.15500    0.72130    0.23010    1.000
    O26      O        0.25490    0.72440    0.30250    1.000
    O27      O        0.27870    0.84500    0.26990    1.000
    O28      O        0.27560    0.74510    0.19750    1.000
    Cl8      Cl       0.62264    0.37736    0.25000    1.000
    O29      O        0.67940    0.40220    0.30110    1.000
    O30      O        0.54580    0.39290    0.27640    1.000
    O31      O        0.59780    0.32060    0.19890    1.000
    O32      O        0.60710    0.45420    0.22360    1.000
