# CIF file generated by openbabel 3.1.0, see https://openbabel.org
data_I
_chemical_name_common 'image0'
_cell_length_a 12.865
_cell_length_b 24.162
_cell_length_c 12.368
_cell_angle_alpha 90
_cell_angle_beta 90
_cell_angle_gamma 90
_space_group_name_H-M_alt 'P 1'
_space_group_name_Hall 'P 1'
loop_
    _symmetry_equiv_pos_as_xyz
    x,y,z
loop_
    _atom_site_label
    _atom_site_type_symbol
    _atom_site_fract_x
    _atom_site_fract_y
    _atom_site_fract_z
    _atom_site_occupancy
    C1       C        0.72220    0.32990    0.50970    1.000
    C2       C        0.70030    0.27260    0.51600    1.000
    H1       H        0.69520    0.25490    0.58260    1.000
    C3       C        0.68670    0.24340    0.42070    1.000
    C4       C        0.69130    0.26950    0.32050    1.000
    H2       H        0.68110    0.24940    0.25720    1.000
    C5       C        0.71150    0.32680    0.31620    1.000
    C6       C        0.72870    0.35670    0.41040    1.000
    H3       H        0.74440    0.39420    0.40710    1.000
    C7       C        0.76300    0.41180    0.61290    1.000
    H4       H        0.71490    0.43410    0.56960    1.000
    C8       C        0.87290    0.41930    0.56970    1.000
    C9       C        0.75560    0.42930    0.72890    1.000
    H5       H        0.80900    0.41120    0.77000    1.000
    H6       H        0.68870    0.41920    0.75710    1.000
    H7       H        0.76440    0.46860    0.73400    1.000
    C10      C        0.72390    0.40640    0.20000    1.000
    H8       H        0.78820    0.41870    0.23500    1.000
    C11      C        0.63390    0.43730    0.24680    1.000
    C12      C        0.73190    0.41650    0.07970    1.000
    H9       H        0.67300    0.40030    0.04400    1.000
    H10      H        0.79450    0.39990    0.05260    1.000
    H11      H        0.73320    0.45560    0.06610    1.000
    C13      C        0.66090    0.18290    0.42530    1.000
    C14      C        0.52670    0.54760    0.74200    1.000
    C15      C        0.52660    0.54750    0.85460    1.000
    H12      H        0.54440    0.57940    0.89250    1.000
    C16      C        0.54760    0.60390    0.58220    1.000
    H13      H        0.48180    0.58840    0.55600    1.000
    C17      C        0.63900    0.57520    0.52180    1.000
    C18      C        0.54880    0.66600    0.56030    1.000
    H14      H        0.61180    0.68170    0.58840    1.000
    H15      H        0.49010    0.68300    0.59500    1.000
    H16      H        0.54520    0.67240    0.48380    1.000
    C19      C        0.98720    0.54850    0.06850    1.000
    C20      C        0.98480    0.54940    0.95680    1.000
    H17      H        0.97330    0.58230    0.91970    1.000
    C21      C        0.98520    0.60390    0.23020    1.000
    H18      H        0.04940    0.58540    0.25290    1.000
    C22      C        0.89500    0.57820    0.28550    1.000
    C23      C        0.99170    0.66490    0.25660    1.000
    H19      H        0.92750    0.68260    0.23720    1.000
    H20      H        0.04780    0.68130    0.21660    1.000
    H21      H        0.00390    0.66950    0.33260    1.000
    Nd1      Nd       0.89729    0.56812    0.56045    1.000
    Nd2      Nd       0.37584    0.41814    0.23116    1.000
    O1       O        0.71310    0.34820    0.21390    1.000
    O2       O        0.55550    0.41320    0.27110    1.000
    O3       O        0.65320    0.48920    0.25500    1.000
    O4       O        0.73190    0.35480    0.60800    1.000
    O5       O        0.90180    0.46759    0.54490    1.000
    O6       O        0.93370    0.37974    0.56970    1.000
    O7       O        0.66740    0.15861    0.51530    1.000
    O8       O        0.63820    0.15710    0.34130    1.000
    O9       O        0.55290    0.59700    0.69580    1.000
    O10      O        0.71430    0.55960    0.57730    1.000
    O11      O        0.62980    0.57240    0.42320    1.000
    O12      O        0.54300    0.53930    0.07730    1.000
    O13      O        0.97500    0.60040    0.11560    1.000
    O14      O        0.91360    0.55830    0.37680    1.000
    O15      O        0.81120    0.57800    0.24260    1.000
    O16      O        0.95370    0.53940    0.73240    1.000
    O17      O        0.31030    0.32920    0.30760    1.000
    H22      H        0.27940    0.30040    0.33020    1.000
    H23      H        0.37300    0.32760    0.32890    1.000
    C24      C        0.27780    0.67010    0.50970    1.000
    C25      C        0.29970    0.72740    0.51600    1.000
    H24      H        0.30480    0.74510    0.58260    1.000
    C26      C        0.31330    0.75660    0.42070    1.000
    C27      C        0.30870    0.73050    0.32050    1.000
    H25      H        0.31890    0.75060    0.25720    1.000
    C28      C        0.28850    0.67320    0.31620    1.000
    C29      C        0.27130    0.64330    0.41040    1.000
    H26      H        0.25560    0.60580    0.40710    1.000
    C30      C        0.23700    0.58820    0.61290    1.000
    H27      H        0.28510    0.56590    0.56960    1.000
    C31      C        0.12710    0.58070    0.56970    1.000
    C32      C        0.24440    0.57070    0.72890    1.000
    H28      H        0.19100    0.58880    0.77000    1.000
    H29      H        0.31130    0.58080    0.75710    1.000
    H30      H        0.23560    0.53140    0.73400    1.000
    C33      C        0.27610    0.59360    0.20000    1.000
    H31      H        0.21180    0.58130    0.23500    1.000
    C34      C        0.36610    0.56270    0.24680    1.000
    C35      C        0.26810    0.58350    0.07970    1.000
    H32      H        0.32700    0.59970    0.04400    1.000
    H33      H        0.20550    0.60010    0.05260    1.000
    H34      H        0.26680    0.54440    0.06610    1.000
    C36      C        0.33910    0.81710    0.42530    1.000
    C37      C        0.47330    0.45240    0.74200    1.000
    C38      C        0.47340    0.45250    0.85460    1.000
    H35      H        0.45560    0.42060    0.89250    1.000
    C39      C        0.45240    0.39610    0.58220    1.000
    H36      H        0.51820    0.41160    0.55600    1.000
    C40      C        0.36100    0.42480    0.52180    1.000
    C41      C        0.45120    0.33400    0.56030    1.000
    H37      H        0.38820    0.31830    0.58840    1.000
    H38      H        0.50990    0.31700    0.59500    1.000
    H39      H        0.45480    0.32760    0.48380    1.000
    C42      C        0.01280    0.45150    0.06850    1.000
    C43      C        0.01520    0.45060    0.95680    1.000
    H40      H        0.02670    0.41770    0.91970    1.000
    C44      C        0.01480    0.39610    0.23020    1.000
    H41      H        0.95060    0.41460    0.25290    1.000
    C45      C        0.10500    0.42180    0.28550    1.000
    C46      C        0.00830    0.33510    0.25660    1.000
    H42      H        0.07250    0.31740    0.23720    1.000
    H43      H        0.95220    0.31870    0.21660    1.000
    H44      H        0.99610    0.33050    0.33260    1.000
    Nd3      Nd       0.10271    0.43188    0.56045    1.000
    Nd4      Nd       0.62416    0.58186    0.23116    1.000
    O18      O        0.28690    0.65180    0.21390    1.000
    O19      O        0.44450    0.58680    0.27110    1.000
    O20      O        0.34680    0.51080    0.25500    1.000
    O21      O        0.26810    0.64520    0.60800    1.000
    O22      O        0.09820    0.53241    0.54490    1.000
    O23      O        0.06630    0.62026    0.56970    1.000
    O24      O        0.33260    0.84139    0.51530    1.000
    O25      O        0.36180    0.84290    0.34130    1.000
    O26      O        0.44710    0.40300    0.69580    1.000
    O27      O        0.28570    0.44040    0.57730    1.000
    O28      O        0.37020    0.42760    0.42320    1.000
    O29      O        0.45700    0.46070    0.07730    1.000
    O30      O        0.02500    0.39960    0.11560    1.000
    O31      O        0.08640    0.44170    0.37680    1.000
    O32      O        0.18880    0.42200    0.24260    1.000
    O33      O        0.04630    0.46060    0.73240    1.000
    O34      O        0.68970    0.67080    0.30760    1.000
    H45      H        0.72060    0.69960    0.33020    1.000
    H46      H        0.62700    0.67240    0.32890    1.000
    C47      C        0.77780    0.82990    0.49030    1.000
    C48      C        0.79970    0.77260    0.48400    1.000
    H47      H        0.80480    0.75490    0.41740    1.000
    C49      C        0.81330    0.74340    0.57930    1.000
    C50      C        0.80870    0.76950    0.67950    1.000
    H48      H        0.81890    0.74940    0.74280    1.000
    C51      C        0.78850    0.82680    0.68380    1.000
    C52      C        0.77130    0.85670    0.58960    1.000
    H49      H        0.75560    0.89420    0.59290    1.000
    C53      C        0.73700    0.91180    0.38710    1.000
    H50      H        0.78510    0.93410    0.43040    1.000
    C54      C        0.62710    0.91930    0.43030    1.000
    C55      C        0.74440    0.92930    0.27110    1.000
    H51      H        0.69100    0.91120    0.23000    1.000
    H52      H        0.81130    0.91920    0.24290    1.000
    H53      H        0.73560    0.96860    0.26600    1.000
    C56      C        0.77610    0.90640    0.80000    1.000
    H54      H        0.71180    0.91870    0.76500    1.000
    C57      C        0.86610    0.93730    0.75320    1.000
    C58      C        0.76810    0.91650    0.92030    1.000
    H55      H        0.82700    0.90030    0.95600    1.000
    H56      H        0.70550    0.89990    0.94740    1.000
    H57      H        0.76680    0.95560    0.93390    1.000
    C59      C        0.83910    0.68290    0.57470    1.000
    C60      C        0.97330    0.04760    0.25800    1.000
    C61      C        0.97340    0.04750    0.14540    1.000
    H58      H        0.95560    0.07940    0.10750    1.000
    C62      C        0.95240    0.10390    0.41780    1.000
    H59      H        0.01820    0.08840    0.44400    1.000
    C63      C        0.86100    0.07520    0.47820    1.000
    C64      C        0.95120    0.16600    0.43970    1.000
    H60      H        0.88820    0.18170    0.41160    1.000
    H61      H        0.00990    0.18300    0.40500    1.000
    H62      H        0.95480    0.17240    0.51620    1.000
    C65      C        0.51280    0.04850    0.93150    1.000
    C66      C        0.51520    0.04940    0.04320    1.000
    H63      H        0.52670    0.08230    0.08030    1.000
    C67      C        0.51480    0.10390    0.76980    1.000
    H64      H        0.45060    0.08540    0.74710    1.000
    C68      C        0.60500    0.07820    0.71450    1.000
    C69      C        0.50830    0.16490    0.74340    1.000
    H65      H        0.57250    0.18260    0.76280    1.000
    H66      H        0.45220    0.18130    0.78340    1.000
    H67      H        0.49610    0.16950    0.66740    1.000
    Nd5      Nd       0.60271    0.06812    0.43955    1.000
    Nd6      Nd       0.12416    0.91814    0.76884    1.000
    O35      O        0.78690    0.84820    0.78610    1.000
    O36      O        0.94450    0.91320    0.72890    1.000
    O37      O        0.84680    0.98920    0.74500    1.000
    O38      O        0.76810    0.85480    0.39200    1.000
    O39      O        0.59820    0.96759    0.45510    1.000
    O40      O        0.56630    0.87974    0.43030    1.000
    O41      O        0.83260    0.65861    0.48470    1.000
    O42      O        0.86180    0.65710    0.65870    1.000
    O43      O        0.94710    0.09700    0.30420    1.000
    O44      O        0.78570    0.05960    0.42270    1.000
    O45      O        0.87020    0.07240    0.57680    1.000
    O46      O        0.95700    0.03930    0.92270    1.000
    O47      O        0.52500    0.10040    0.88440    1.000
    O48      O        0.58640    0.05830    0.62320    1.000
    O49      O        0.68880    0.07800    0.75740    1.000
    O50      O        0.54630    0.03940    0.26760    1.000
    O51      O        0.18970    0.82920    0.69240    1.000
    H68      H        0.22060    0.80040    0.66980    1.000
    H69      H        0.12700    0.82760    0.67110    1.000
    C70      C        0.22220    0.17010    0.49030    1.000
    C71      C        0.20030    0.22740    0.48400    1.000
    H70      H        0.19520    0.24510    0.41740    1.000
    C72      C        0.18670    0.25660    0.57930    1.000
    C73      C        0.19130    0.23050    0.67950    1.000
    H71      H        0.18110    0.25060    0.74280    1.000
    C74      C        0.21150    0.17320    0.68380    1.000
    C75      C        0.22870    0.14330    0.58960    1.000
    H72      H        0.24440    0.10580    0.59290    1.000
    C76      C        0.26300    0.08820    0.38710    1.000
    H73      H        0.21490    0.06590    0.43040    1.000
    C77      C        0.37290    0.08070    0.43030    1.000
    C78      C        0.25560    0.07070    0.27110    1.000
    H74      H        0.30900    0.08880    0.23000    1.000
    H75      H        0.18870    0.08080    0.24290    1.000
    H76      H        0.26440    0.03140    0.26600    1.000
    C79      C        0.22390    0.09360    0.80000    1.000
    H77      H        0.28820    0.08130    0.76500    1.000
    C80      C        0.13390    0.06270    0.75320    1.000
    C81      C        0.23190    0.08350    0.92030    1.000
    H78      H        0.17300    0.09970    0.95600    1.000
    H79      H        0.29450    0.10010    0.94740    1.000
    H80      H        0.23320    0.04440    0.93390    1.000
    C82      C        0.16090    0.31710    0.57470    1.000
    C83      C        0.02670    0.95240    0.25800    1.000
    C84      C        0.02660    0.95250    0.14540    1.000
    H81      H        0.04440    0.92060    0.10750    1.000
    C85      C        0.04760    0.89610    0.41780    1.000
    H82      H        0.98180    0.91160    0.44400    1.000
    C86      C        0.13900    0.92480    0.47820    1.000
    C87      C        0.04880    0.83400    0.43970    1.000
    H83      H        0.11180    0.81830    0.41160    1.000
    H84      H        0.99010    0.81700    0.40500    1.000
    H85      H        0.04520    0.82760    0.51620    1.000
    C88      C        0.48720    0.95150    0.93150    1.000
    C89      C        0.48480    0.95060    0.04320    1.000
    H86      H        0.47330    0.91770    0.08030    1.000
    C90      C        0.48520    0.89610    0.76980    1.000
    H87      H        0.54940    0.91460    0.74710    1.000
    C91      C        0.39500    0.92180    0.71450    1.000
    C92      C        0.49170    0.83510    0.74340    1.000
    H88      H        0.42750    0.81740    0.76280    1.000
    H89      H        0.54780    0.81870    0.78340    1.000
    H90      H        0.50390    0.83050    0.66740    1.000
    Nd7      Nd       0.39729    0.93188    0.43955    1.000
    Nd8      Nd       0.87584    0.08186    0.76884    1.000
    O52      O        0.21310    0.15180    0.78610    1.000
    O53      O        0.05550    0.08680    0.72890    1.000
    O54      O        0.15320    0.01080    0.74500    1.000
    O55      O        0.23190    0.14520    0.39200    1.000
    O56      O        0.40180    0.03241    0.45510    1.000
    O57      O        0.43370    0.12026    0.43030    1.000
    O58      O        0.16740    0.34139    0.48470    1.000
    O59      O        0.13820    0.34290    0.65870    1.000
    O60      O        0.05290    0.90300    0.30420    1.000
    O61      O        0.21430    0.94040    0.42270    1.000
    O62      O        0.12980    0.92760    0.57680    1.000
    O63      O        0.04300    0.96070    0.92270    1.000
    O64      O        0.47500    0.89960    0.88440    1.000
    O65      O        0.41360    0.94170    0.62320    1.000
    O66      O        0.31120    0.92200    0.75740    1.000
    O67      O        0.45370    0.96060    0.26760    1.000
    O68      O        0.81030    0.17080    0.69240    1.000
    H91      H        0.77940    0.19960    0.66980    1.000
    H92      H        0.87300    0.17240    0.67110    1.000
    C93      C        0.50000    0.50000    0.68480    1.000
    H93      H        0.50000    0.50000    0.60970    1.000
    C94      C        0.50000    0.50000    0.90980    1.000
    C95      C        0.50000    0.50000    0.03060    1.000
    C96      C        0.00000    0.00000    0.31520    1.000
    H94      H        0.00000    0.00000    0.39030    1.000
    C97      C        0.00000    0.00000    0.09020    1.000
    C98      C        0.00000    0.00000    0.96940    1.000
    C99      C        0.00000    0.50000    0.12610    1.000
    H95      H        0.00000    0.50000    0.20130    1.000
    C100     C        0.00000    0.50000    0.90100    1.000
    C101     C        0.00000    0.50000    0.78020    1.000
    C102     C        0.50000    0.00000    0.87390    1.000
    H96      H        0.50000    0.00000    0.79870    1.000
    C103     C        0.50000    0.00000    0.09900    1.000
    C104     C        0.50000    0.00000    0.21980    1.000
