# CIF file generated by openbabel 3.1.0, see https://openbabel.org
data_I
_chemical_name_common 'image0'
_cell_length_a 25.5147
_cell_length_b 13.4137
_cell_length_c 14.6329
_cell_angle_alpha 90
_cell_angle_beta 101.966
_cell_angle_gamma 90
_space_group_name_H-M_alt 'P 1'
_space_group_name_Hall 'P 1'
loop_
    _symmetry_equiv_pos_as_xyz
    x,y,z
loop_
    _atom_site_label
    _atom_site_type_symbol
    _atom_site_fract_x
    _atom_site_fract_y
    _atom_site_fract_z
    _atom_site_occupancy
    Ce1      Ce       0.32595    0.30895    0.54866    1.000
    O1       O        0.22380    0.34680    0.44790    1.000
    O2       O        0.28910    0.45070    0.44290    1.000
    O3       O        0.26280    0.64440    0.14510    1.000
    O4       O        0.18710    0.72930    0.10560    1.000
    O5       O        0.40990    0.34470    0.47670    1.000
    O6       O        0.41170    0.20080    0.53950    1.000
    O7       O        0.47180    0.23350    0.46380    1.000
    N1       N        0.43140    0.25940    0.49410    1.000
    C1       C        0.24200    0.42560    0.41790    1.000
    C2       C        0.20440    0.48660    0.34770    1.000
    C3       C        0.22630    0.54830    0.28810    1.000
    H1       H        0.26320    0.55320    0.29500    1.000
    C4       C        0.19270    0.60260    0.21830    1.000
    C5       C        0.13760    0.59670    0.21070    1.000
    H2       H        0.11540    0.63410    0.16500    1.000
    C6       C        0.11480    0.53730    0.26870    1.000
    C7       C        0.14950    0.48250    0.33980    1.000
    H3       H        0.13510    0.44370    0.38120    1.000
    C8       C        0.21570    0.66350    0.15150    1.000
    C9       C        0.05590    0.53440    0.26060    1.000
    C10      C        0.03300    0.53230    0.33710    1.000
    H4       H        0.05460    0.53080    0.39670    1.000
    C11      C        0.97760    0.53250    0.32610    1.000
    H5       H        0.96270    0.53130    0.37890    1.000
    Ce2      Ce       0.82595    0.80895    0.54866    1.000
    O8       O        0.72380    0.84680    0.44790    1.000
    O9       O        0.78910    0.95070    0.44290    1.000
    O10      O        0.76280    0.14440    0.14510    1.000
    O11      O        0.68710    0.22930    0.10560    1.000
    O12      O        0.90990    0.84470    0.47670    1.000
    O13      O        0.91170    0.70080    0.53950    1.000
    O14      O        0.97180    0.73350    0.46380    1.000
    N2       N        0.93140    0.75940    0.49410    1.000
    C12      C        0.74200    0.92560    0.41790    1.000
    C13      C        0.70440    0.98660    0.34770    1.000
    C14      C        0.72630    0.04830    0.28810    1.000
    H6       H        0.76320    0.05320    0.29500    1.000
    C15      C        0.69270    0.10260    0.21830    1.000
    C16      C        0.63760    0.09670    0.21070    1.000
    H7       H        0.61540    0.13410    0.16500    1.000
    C17      C        0.61480    0.03730    0.26870    1.000
    C18      C        0.64950    0.98250    0.33980    1.000
    H8       H        0.63510    0.94370    0.38120    1.000
    C19      C        0.71570    0.16350    0.15150    1.000
    C20      C        0.55590    0.03440    0.26060    1.000
    C21      C        0.53300    0.03230    0.33710    1.000
    H9       H        0.55460    0.03080    0.39670    1.000
    C22      C        0.47760    0.03250    0.32610    1.000
    H10      H        0.46270    0.03130    0.37890    1.000
    Ce3      Ce       0.67405    0.30895    0.95134    1.000
    O15      O        0.77620    0.34680    0.05210    1.000
    O16      O        0.71090    0.45070    0.05710    1.000
    O17      O        0.73720    0.64440    0.35490    1.000
    O18      O        0.81290    0.72930    0.39440    1.000
    O19      O        0.59010    0.34470    0.02330    1.000
    O20      O        0.58830    0.20080    0.96050    1.000
    O21      O        0.52820    0.23350    0.03620    1.000
    N3       N        0.56860    0.25940    0.00590    1.000
    C23      C        0.75800    0.42560    0.08210    1.000
    C24      C        0.79560    0.48660    0.15230    1.000
    C25      C        0.77370    0.54830    0.21190    1.000
    H11      H        0.73680    0.55320    0.20500    1.000
    C26      C        0.80730    0.60260    0.28170    1.000
    C27      C        0.86240    0.59670    0.28930    1.000
    H12      H        0.88460    0.63410    0.33500    1.000
    C28      C        0.88520    0.53730    0.23130    1.000
    C29      C        0.85050    0.48250    0.16020    1.000
    H13      H        0.86490    0.44370    0.11880    1.000
    C30      C        0.78430    0.66350    0.34850    1.000
    C31      C        0.94410    0.53440    0.23940    1.000
    C32      C        0.96700    0.53230    0.16290    1.000
    H14      H        0.94540    0.53080    0.10330    1.000
    C33      C        0.02240    0.53250    0.17390    1.000
    H15      H        0.03730    0.53130    0.12110    1.000
    Ce4      Ce       0.17405    0.80895    0.95134    1.000
    O22      O        0.27620    0.84680    0.05210    1.000
    O23      O        0.21090    0.95070    0.05710    1.000
    O24      O        0.23720    0.14440    0.35490    1.000
    O25      O        0.31290    0.22930    0.39440    1.000
    O26      O        0.09010    0.84470    0.02330    1.000
    O27      O        0.08830    0.70080    0.96050    1.000
    O28      O        0.02820    0.73350    0.03620    1.000
    N4       N        0.06860    0.75940    0.00590    1.000
    C34      C        0.25800    0.92560    0.08210    1.000
    C35      C        0.29560    0.98660    0.15230    1.000
    C36      C        0.27370    0.04830    0.21190    1.000
    H16      H        0.23680    0.05320    0.20500    1.000
    C37      C        0.30730    0.10260    0.28170    1.000
    C38      C        0.36240    0.09670    0.28930    1.000
    H17      H        0.38460    0.13410    0.33500    1.000
    C39      C        0.38520    0.03730    0.23130    1.000
    C40      C        0.35050    0.98250    0.16020    1.000
    H18      H        0.36490    0.94370    0.11880    1.000
    C41      C        0.28430    0.16350    0.34850    1.000
    C42      C        0.44410    0.03440    0.23940    1.000
    C43      C        0.46700    0.03230    0.16290    1.000
    H19      H        0.44540    0.03080    0.10330    1.000
    C44      C        0.52240    0.03250    0.17390    1.000
    H20      H        0.53730    0.03130    0.12110    1.000
    Ce5      Ce       0.67405    0.69105    0.45134    1.000
    O29      O        0.77620    0.65320    0.55210    1.000
    O30      O        0.71090    0.54930    0.55710    1.000
    O31      O        0.73720    0.35560    0.85490    1.000
    O32      O        0.81290    0.27070    0.89440    1.000
    O33      O        0.59010    0.65530    0.52330    1.000
    O34      O        0.58830    0.79920    0.46050    1.000
    O35      O        0.52820    0.76650    0.53620    1.000
    N5       N        0.56860    0.74060    0.50590    1.000
    C45      C        0.75800    0.57440    0.58210    1.000
    C46      C        0.79560    0.51340    0.65230    1.000
    C47      C        0.77370    0.45170    0.71190    1.000
    H21      H        0.73680    0.44680    0.70500    1.000
    C48      C        0.80730    0.39740    0.78170    1.000
    C49      C        0.86240    0.40330    0.78930    1.000
    H22      H        0.88460    0.36590    0.83500    1.000
    C50      C        0.88520    0.46270    0.73130    1.000
    C51      C        0.85050    0.51750    0.66020    1.000
    H23      H        0.86490    0.55630    0.61880    1.000
    C52      C        0.78430    0.33650    0.84850    1.000
    C53      C        0.94410    0.46560    0.73940    1.000
    C54      C        0.96700    0.46770    0.66290    1.000
    H24      H        0.94540    0.46920    0.60330    1.000
    C55      C        0.02240    0.46750    0.67390    1.000
    H25      H        0.03730    0.46870    0.62110    1.000
    Ce6      Ce       0.17405    0.19105    0.45134    1.000
    O36      O        0.27620    0.15320    0.55210    1.000
    O37      O        0.21090    0.04930    0.55710    1.000
    O38      O        0.23720    0.85560    0.85490    1.000
    O39      O        0.31290    0.77070    0.89440    1.000
    O40      O        0.09010    0.15530    0.52330    1.000
    O41      O        0.08830    0.29920    0.46050    1.000
    O42      O        0.02820    0.26650    0.53620    1.000
    N6       N        0.06860    0.24060    0.50590    1.000
    C56      C        0.25800    0.07440    0.58210    1.000
    C57      C        0.29560    0.01340    0.65230    1.000
    C58      C        0.27370    0.95170    0.71190    1.000
    H26      H        0.23680    0.94680    0.70500    1.000
    C59      C        0.30730    0.89740    0.78170    1.000
    C60      C        0.36240    0.90330    0.78930    1.000
    H27      H        0.38460    0.86590    0.83500    1.000
    C61      C        0.38520    0.96270    0.73130    1.000
    C62      C        0.35050    0.01750    0.66020    1.000
    H28      H        0.36490    0.05630    0.61880    1.000
    C63      C        0.28430    0.83650    0.84850    1.000
    C64      C        0.44410    0.96560    0.73940    1.000
    C65      C        0.46700    0.96770    0.66290    1.000
    H29      H        0.44540    0.96920    0.60330    1.000
    C66      C        0.52240    0.96750    0.67390    1.000
    H30      H        0.53730    0.96870    0.62110    1.000
    Ce7      Ce       0.32595    0.69105    0.04866    1.000
    O43      O        0.22380    0.65320    0.94790    1.000
    O44      O        0.28910    0.54930    0.94290    1.000
    O45      O        0.26280    0.35560    0.64510    1.000
    O46      O        0.18710    0.27070    0.60560    1.000
    O47      O        0.40990    0.65530    0.97670    1.000
    O48      O        0.41170    0.79920    0.03950    1.000
    O49      O        0.47180    0.76650    0.96380    1.000
    N7       N        0.43140    0.74060    0.99410    1.000
    C67      C        0.24200    0.57440    0.91790    1.000
    C68      C        0.20440    0.51340    0.84770    1.000
    C69      C        0.22630    0.45170    0.78810    1.000
    H31      H        0.26320    0.44680    0.79500    1.000
    C70      C        0.19270    0.39740    0.71830    1.000
    C71      C        0.13760    0.40330    0.71070    1.000
    H32      H        0.11540    0.36590    0.66500    1.000
    C72      C        0.11480    0.46270    0.76870    1.000
    C73      C        0.14950    0.51750    0.83980    1.000
    H33      H        0.13510    0.55630    0.88120    1.000
    C74      C        0.21570    0.33650    0.65150    1.000
    C75      C        0.05590    0.46560    0.76060    1.000
    C76      C        0.03300    0.46770    0.83710    1.000
    H34      H        0.05460    0.46920    0.89670    1.000
    C77      C        0.97760    0.46750    0.82610    1.000
    H35      H        0.96270    0.46870    0.87890    1.000
    Ce8      Ce       0.82595    0.19105    0.04866    1.000
    O50      O        0.72380    0.15320    0.94790    1.000
    O51      O        0.78910    0.04930    0.94290    1.000
    O52      O        0.76280    0.85560    0.64510    1.000
    O53      O        0.68710    0.77070    0.60560    1.000
    O54      O        0.90990    0.15530    0.97670    1.000
    O55      O        0.91170    0.29920    0.03950    1.000
    O56      O        0.97180    0.26650    0.96380    1.000
    N8       N        0.93140    0.24060    0.99410    1.000
    C78      C        0.74200    0.07440    0.91790    1.000
    C79      C        0.70440    0.01340    0.84770    1.000
    C80      C        0.72630    0.95170    0.78810    1.000
    H36      H        0.76320    0.94680    0.79500    1.000
    C81      C        0.69270    0.89740    0.71830    1.000
    C82      C        0.63760    0.90330    0.71070    1.000
    H37      H        0.61540    0.86590    0.66500    1.000
    C83      C        0.61480    0.96270    0.76870    1.000
    C84      C        0.64950    0.01750    0.83980    1.000
    H38      H        0.63510    0.05630    0.88120    1.000
    C85      C        0.71570    0.83650    0.65150    1.000
    C86      C        0.55590    0.96560    0.76060    1.000
    C87      C        0.53300    0.96770    0.83710    1.000
    H39      H        0.55460    0.96920    0.89670    1.000
    C88      C        0.47760    0.96750    0.82610    1.000
    H40      H        0.46270    0.96870    0.87890    1.000
