# CIF file generated by openbabel 3.1.0, see https://openbabel.org
data_I
_chemical_name_common 'image0'
_cell_length_a 15.7166
_cell_length_b 15.7166
_cell_length_c 32.137
_cell_angle_alpha 90
_cell_angle_beta 90
_cell_angle_gamma 90
_space_group_name_H-M_alt 'P 1'
_space_group_name_Hall 'P 1'
loop_
    _symmetry_equiv_pos_as_xyz
    x,y,z
loop_
    _atom_site_label
    _atom_site_type_symbol
    _atom_site_fract_x
    _atom_site_fract_y
    _atom_site_fract_z
    _atom_site_occupancy
    Cd1      Cd       0.27199    0.72829    0.07957    1.000
    O1       O        0.30940    0.58650    0.10950    1.000
    O2       O        0.19400    0.65030    0.12890    1.000
    O3       O        0.25940    0.34040    0.28920    1.000
    O4       O        0.13130    0.30380    0.26630    1.000
    O5       O        0.72210    0.64850    0.13360    1.000
    O6       O        0.84280    0.70150    0.11120    1.000
    O7       O        0.69540    0.39070    0.95790    1.000
    O8       O        0.82560    0.35170    0.96980    1.000
    C1       C        0.24600    0.59670    0.13060    1.000
    C2       C        0.19690    0.34500    0.26310    1.000
    C3       C        0.22980    0.51740    0.16240    1.000
    C4       C        0.15030    0.48400    0.16930    1.000
    C5       C        0.13910    0.42860    0.20260    1.000
    H1       H        0.08540    0.40600    0.20770    1.000
    C6       C        0.20620    0.40640    0.22840    1.000
    C7       C        0.28840    0.43810    0.22010    1.000
    H2       H        0.33470    0.42350    0.23660    1.000
    C8       C        0.29780    0.49290    0.18570    1.000
    H3       H        0.35170    0.51270    0.17870    1.000
    C9       C        0.78420    0.65020    0.11020    1.000
    C10      C        0.76210    0.39720    0.97650    1.000
    C11      C        0.78130    0.58080    0.07600    1.000
    C12      C        0.85080    0.52520    0.06840    1.000
    C13      C        0.84390    0.47080    0.03500    1.000
    H4       H        0.89020    0.43670    0.02810    1.000
    C14      C        0.76690    0.46440    0.00990    1.000
    C15      C        0.70100    0.51680    0.01920    1.000
    H5       H        0.65120    0.51520    0.00360    1.000
    C16      C        0.70880    0.57280    0.05240    1.000
    H6       H        0.66240    0.60700    0.05900    1.000
    C17      C        0.07530    0.50280    0.14330    1.000
    C18      C        0.08140    0.50500    0.10020    1.000
    H7       H        0.13420    0.49990    0.08740    1.000
    C19      C        0.00850    0.51480    0.07590    1.000
    H8       H        0.01420    0.51370    0.04710    1.000
    C20      C        0.92920    0.52600    0.09230    1.000
    C21      C        0.92300    0.52750    0.13740    1.000
    H9       H        0.87040    0.53540    0.15010    1.000
    C22      C        0.99420    0.51730    0.16120    1.000
    H10      H        0.98940    0.51990    0.19000    1.000
    Cd2      Cd       0.72801    0.27171    0.57957    1.000
    O9       O        0.69060    0.41350    0.60950    1.000
    O10      O        0.80600    0.34970    0.62890    1.000
    O11      O        0.74060    0.65960    0.78920    1.000
    O12      O        0.86870    0.69620    0.76630    1.000
    O13      O        0.27790    0.35150    0.63360    1.000
    O14      O        0.15720    0.29850    0.61120    1.000
    O15      O        0.30460    0.60930    0.45790    1.000
    O16      O        0.17440    0.64830    0.46980    1.000
    C23      C        0.75400    0.40330    0.63060    1.000
    C24      C        0.80310    0.65500    0.76310    1.000
    C25      C        0.77020    0.48260    0.66240    1.000
    C26      C        0.84970    0.51600    0.66930    1.000
    C27      C        0.86090    0.57140    0.70260    1.000
    H11      H        0.91460    0.59400    0.70770    1.000
    C28      C        0.79380    0.59360    0.72840    1.000
    C29      C        0.71160    0.56190    0.72010    1.000
    H12      H        0.66530    0.57650    0.73660    1.000
    C30      C        0.70220    0.50710    0.68570    1.000
    H13      H        0.64830    0.48730    0.67870    1.000
    C31      C        0.21580    0.34980    0.61020    1.000
    C32      C        0.23790    0.60280    0.47650    1.000
    C33      C        0.21870    0.41920    0.57600    1.000
    C34      C        0.14920    0.47480    0.56840    1.000
    C35      C        0.15610    0.52920    0.53500    1.000
    H14      H        0.10980    0.56330    0.52810    1.000
    C36      C        0.23310    0.53560    0.50990    1.000
    C37      C        0.29900    0.48320    0.51920    1.000
    H15      H        0.34880    0.48480    0.50360    1.000
    C38      C        0.29120    0.42720    0.55240    1.000
    H16      H        0.33760    0.39300    0.55900    1.000
    C39      C        0.92470    0.49720    0.64330    1.000
    C40      C        0.91860    0.49500    0.60020    1.000
    H17      H        0.86580    0.50010    0.58740    1.000
    C41      C        0.99150    0.48520    0.57590    1.000
    H18      H        0.98580    0.48630    0.54710    1.000
    C42      C        0.07080    0.47400    0.59230    1.000
    C43      C        0.07700    0.47250    0.63740    1.000
    H19      H        0.12960    0.46460    0.65010    1.000
    C44      C        0.00580    0.48270    0.66120    1.000
    H20      H        0.01060    0.48010    0.69000    1.000
    Cd3      Cd       0.77171    0.77199    0.82957    1.000
    O17      O        0.91350    0.80940    0.85950    1.000
    O18      O        0.84970    0.69400    0.87890    1.000
    O19      O        0.15960    0.75940    0.03920    1.000
    O20      O        0.19620    0.63130    0.01630    1.000
    O21      O        0.85150    0.22210    0.88360    1.000
    O22      O        0.79850    0.34280    0.86120    1.000
    O23      O        0.10930    0.19540    0.70790    1.000
    O24      O        0.14830    0.32560    0.71980    1.000
    C45      C        0.90330    0.74600    0.88060    1.000
    C46      C        0.15500    0.69690    0.01310    1.000
    C47      C        0.98260    0.72980    0.91240    1.000
    C48      C        0.01600    0.65030    0.91930    1.000
    C49      C        0.07140    0.63910    0.95260    1.000
    H21      H        0.09400    0.58540    0.95770    1.000
    C50      C        0.09360    0.70620    0.97840    1.000
    C51      C        0.06190    0.78840    0.97010    1.000
    H22      H        0.07650    0.83470    0.98660    1.000
    C52      C        0.00710    0.79780    0.93570    1.000
    H23      H        0.98730    0.85170    0.92870    1.000
    C53      C        0.84980    0.28420    0.86020    1.000
    C54      C        0.10280    0.26210    0.72650    1.000
    C55      C        0.91920    0.28130    0.82600    1.000
    C56      C        0.97480    0.35080    0.81840    1.000
    C57      C        0.02920    0.34390    0.78500    1.000
    H24      H        0.06330    0.39020    0.77810    1.000
    C58      C        0.03560    0.26690    0.75990    1.000
    C59      C        0.98320    0.20100    0.76920    1.000
    H25      H        0.98480    0.15120    0.75360    1.000
    C60      C        0.92720    0.20880    0.80240    1.000
    H26      H        0.89300    0.16240    0.80900    1.000
    C61      C        0.99720    0.57530    0.89330    1.000
    C62      C        0.99500    0.58140    0.85020    1.000
    H27      H        0.00010    0.63420    0.83740    1.000
    C63      C        0.98520    0.50850    0.82590    1.000
    H28      H        0.98630    0.51420    0.79710    1.000
    C64      C        0.97400    0.42920    0.84230    1.000
    C65      C        0.97250    0.42300    0.88740    1.000
    H29      H        0.96460    0.37040    0.90010    1.000
    C66      C        0.98270    0.49420    0.91120    1.000
    H30      H        0.98010    0.48940    0.94000    1.000
    Cd4      Cd       0.22829    0.22801    0.32957    1.000
    O25      O        0.08650    0.19060    0.35950    1.000
    O26      O        0.15030    0.30600    0.37890    1.000
    O27      O        0.84040    0.24060    0.53920    1.000
    O28      O        0.80380    0.36870    0.51630    1.000
    O29      O        0.14850    0.77790    0.38360    1.000
    O30      O        0.20150    0.65720    0.36120    1.000
    O31      O        0.89070    0.80460    0.20790    1.000
    O32      O        0.85170    0.67440    0.21980    1.000
    C67      C        0.09670    0.25400    0.38060    1.000
    C68      C        0.84500    0.30310    0.51310    1.000
    C69      C        0.01740    0.27020    0.41240    1.000
    C70      C        0.98400    0.34970    0.41930    1.000
    C71      C        0.92860    0.36090    0.45260    1.000
    H31      H        0.90600    0.41460    0.45770    1.000
    C72      C        0.90640    0.29380    0.47840    1.000
    C73      C        0.93810    0.21160    0.47010    1.000
    H32      H        0.92350    0.16530    0.48660    1.000
    C74      C        0.99290    0.20220    0.43570    1.000
    H33      H        0.01270    0.14830    0.42870    1.000
    C75      C        0.15020    0.71580    0.36020    1.000
    C76      C        0.89720    0.73790    0.22650    1.000
    C77      C        0.08080    0.71870    0.32600    1.000
    C78      C        0.02520    0.64920    0.31840    1.000
    C79      C        0.97080    0.65610    0.28500    1.000
    H34      H        0.93670    0.60980    0.27810    1.000
    C80      C        0.96440    0.73310    0.25990    1.000
    C81      C        0.01680    0.79900    0.26920    1.000
    H35      H        0.01520    0.84880    0.25360    1.000
    C82      C        0.07280    0.79120    0.30240    1.000
    H36      H        0.10700    0.83760    0.30900    1.000
    C83      C        0.00280    0.42470    0.39330    1.000
    C84      C        0.00500    0.41860    0.35020    1.000
    H37      H        0.99990    0.36580    0.33740    1.000
    C85      C        0.01480    0.49150    0.32590    1.000
    H38      H        0.01370    0.48580    0.29710    1.000
    C86      C        0.02600    0.57080    0.34230    1.000
    C87      C        0.02750    0.57700    0.38740    1.000
    H39      H        0.03540    0.62960    0.40010    1.000
    C88      C        0.01730    0.50580    0.41120    1.000
    H40      H        0.01990    0.51060    0.44000    1.000
    Cd5      Cd       0.22801    0.22829    0.67043    1.000
    O33      O        0.19060    0.08650    0.64050    1.000
    O34      O        0.30600    0.15030    0.62110    1.000
    O35      O        0.24060    0.84040    0.46080    1.000
    O36      O        0.36870    0.80380    0.48370    1.000
    O37      O        0.77790    0.14850    0.61640    1.000
    O38      O        0.65720    0.20150    0.63880    1.000
    O39      O        0.80460    0.89070    0.79210    1.000
    O40      O        0.67440    0.85170    0.78020    1.000
    C89      C        0.25400    0.09670    0.61940    1.000
    C90      C        0.30310    0.84500    0.48690    1.000
    C91      C        0.27020    0.01740    0.58760    1.000
    C92      C        0.34970    0.98400    0.58070    1.000
    C93      C        0.36090    0.92860    0.54740    1.000
    H41      H        0.41460    0.90600    0.54230    1.000
    C94      C        0.29380    0.90640    0.52160    1.000
    C95      C        0.21160    0.93810    0.52990    1.000
    H42      H        0.16530    0.92350    0.51340    1.000
    C96      C        0.20220    0.99290    0.56430    1.000
    H43      H        0.14830    0.01270    0.57130    1.000
    C97      C        0.71580    0.15020    0.63980    1.000
    C98      C        0.73790    0.89720    0.77350    1.000
    C99      C        0.71870    0.08080    0.67400    1.000
    C100     C        0.64920    0.02520    0.68160    1.000
    C101     C        0.65610    0.97080    0.71500    1.000
    H44      H        0.60980    0.93670    0.72190    1.000
    C102     C        0.73310    0.96440    0.74010    1.000
    C103     C        0.79900    0.01680    0.73080    1.000
    H45      H        0.84880    0.01520    0.74640    1.000
    C104     C        0.79120    0.07280    0.69760    1.000
    H46      H        0.83760    0.10700    0.69100    1.000
    C105     C        0.42470    0.00280    0.60670    1.000
    C106     C        0.41860    0.00500    0.64980    1.000
    H47      H        0.36580    0.99990    0.66260    1.000
    C107     C        0.49150    0.01480    0.67410    1.000
    H48      H        0.48580    0.01370    0.70290    1.000
    C108     C        0.57080    0.02600    0.65770    1.000
    C109     C        0.57700    0.02750    0.61260    1.000
    H49      H        0.62960    0.03540    0.59990    1.000
    C110     C        0.50580    0.01730    0.58880    1.000
    H50      H        0.51060    0.01990    0.56000    1.000
    Cd6      Cd       0.77199    0.77171    0.17043    1.000
    O41      O        0.80940    0.91350    0.14050    1.000
    O42      O        0.69400    0.84970    0.12110    1.000
    O43      O        0.75940    0.15960    0.96080    1.000
    O44      O        0.63130    0.19620    0.98370    1.000
    O45      O        0.22210    0.85150    0.11640    1.000
    O46      O        0.34280    0.79850    0.13880    1.000
    O47      O        0.19540    0.10930    0.29210    1.000
    O48      O        0.32560    0.14830    0.28020    1.000
    C111     C        0.74600    0.90330    0.11940    1.000
    C112     C        0.69690    0.15500    0.98690    1.000
    C113     C        0.72980    0.98260    0.08760    1.000
    C114     C        0.65030    0.01600    0.08070    1.000
    C115     C        0.63910    0.07140    0.04740    1.000
    H51      H        0.58540    0.09400    0.04230    1.000
    C116     C        0.70620    0.09360    0.02160    1.000
    C117     C        0.78840    0.06190    0.02990    1.000
    H52      H        0.83470    0.07650    0.01340    1.000
    C118     C        0.79780    0.00710    0.06430    1.000
    H53      H        0.85170    0.98730    0.07130    1.000
    C119     C        0.28420    0.84980    0.13980    1.000
    C120     C        0.26210    0.10280    0.27350    1.000
    C121     C        0.28130    0.91920    0.17400    1.000
    C122     C        0.35080    0.97480    0.18160    1.000
    C123     C        0.34390    0.02920    0.21500    1.000
    H54      H        0.39020    0.06330    0.22190    1.000
    C124     C        0.26690    0.03560    0.24010    1.000
    C125     C        0.20100    0.98320    0.23080    1.000
    H55      H        0.15120    0.98480    0.24640    1.000
    C126     C        0.20880    0.92720    0.19760    1.000
    H56      H        0.16240    0.89300    0.19100    1.000
    C127     C        0.57530    0.99720    0.10670    1.000
    C128     C        0.58140    0.99500    0.14980    1.000
    H57      H        0.63420    0.00010    0.16260    1.000
    C129     C        0.50850    0.98520    0.17410    1.000
    H58      H        0.51420    0.98630    0.20290    1.000
    C130     C        0.42920    0.97400    0.15770    1.000
    C131     C        0.42300    0.97250    0.11260    1.000
    H59      H        0.37040    0.96460    0.09990    1.000
    C132     C        0.49420    0.98270    0.08880    1.000
    H60      H        0.48940    0.98010    0.06000    1.000
    Cd7      Cd       0.72829    0.27199    0.92043    1.000
    O49      O        0.58650    0.30940    0.89050    1.000
    O50      O        0.65030    0.19400    0.87110    1.000
    O51      O        0.34040    0.25940    0.71080    1.000
    O52      O        0.30380    0.13130    0.73370    1.000
    O53      O        0.64850    0.72210    0.86640    1.000
    O54      O        0.70150    0.84280    0.88880    1.000
    O55      O        0.39070    0.69540    0.04210    1.000
    O56      O        0.35170    0.82560    0.03020    1.000
    C133     C        0.59670    0.24600    0.86940    1.000
    C134     C        0.34500    0.19690    0.73690    1.000
    C135     C        0.51740    0.22980    0.83760    1.000
    C136     C        0.48400    0.15030    0.83070    1.000
    C137     C        0.42860    0.13910    0.79740    1.000
    H61      H        0.40600    0.08540    0.79230    1.000
    C138     C        0.40640    0.20620    0.77160    1.000
    C139     C        0.43810    0.28840    0.77990    1.000
    H62      H        0.42350    0.33470    0.76340    1.000
    C140     C        0.49290    0.29780    0.81430    1.000
    H63      H        0.51270    0.35170    0.82130    1.000
    C141     C        0.65020    0.78420    0.88980    1.000
    C142     C        0.39720    0.76210    0.02350    1.000
    C143     C        0.58080    0.78130    0.92400    1.000
    C144     C        0.52520    0.85080    0.93160    1.000
    C145     C        0.47080    0.84390    0.96500    1.000
    H64      H        0.43670    0.89020    0.97190    1.000
    C146     C        0.46440    0.76690    0.99010    1.000
    C147     C        0.51680    0.70100    0.98080    1.000
    H65      H        0.51520    0.65120    0.99640    1.000
    C148     C        0.57280    0.70880    0.94760    1.000
    H66      H        0.60700    0.66240    0.94100    1.000
    C149     C        0.50280    0.07530    0.85670    1.000
    C150     C        0.50500    0.08140    0.89980    1.000
    H67      H        0.49990    0.13420    0.91260    1.000
    C151     C        0.51480    0.00850    0.92410    1.000
    H68      H        0.51370    0.01420    0.95290    1.000
    C152     C        0.52600    0.92920    0.90770    1.000
    C153     C        0.52750    0.92300    0.86260    1.000
    H69      H        0.53540    0.87040    0.84990    1.000
    C154     C        0.51730    0.99420    0.83880    1.000
    H70      H        0.51990    0.98940    0.81000    1.000
    Cd8      Cd       0.27171    0.72801    0.42043    1.000
    O57      O        0.41350    0.69060    0.39050    1.000
    O58      O        0.34970    0.80600    0.37110    1.000
    O59      O        0.65960    0.74060    0.21080    1.000
    O60      O        0.69620    0.86870    0.23370    1.000
    O61      O        0.35150    0.27790    0.36640    1.000
    O62      O        0.29850    0.15720    0.38880    1.000
    O63      O        0.60930    0.30460    0.54210    1.000
    O64      O        0.64830    0.17440    0.53020    1.000
    C155     C        0.40330    0.75400    0.36940    1.000
    C156     C        0.65500    0.80310    0.23690    1.000
    C157     C        0.48260    0.77020    0.33760    1.000
    C158     C        0.51600    0.84970    0.33070    1.000
    C159     C        0.57140    0.86090    0.29740    1.000
    H71      H        0.59400    0.91460    0.29230    1.000
    C160     C        0.59360    0.79380    0.27160    1.000
    C161     C        0.56190    0.71160    0.27990    1.000
    H72      H        0.57650    0.66530    0.26340    1.000
    C162     C        0.50710    0.70220    0.31430    1.000
    H73      H        0.48730    0.64830    0.32130    1.000
    C163     C        0.34980    0.21580    0.38980    1.000
    C164     C        0.60280    0.23790    0.52350    1.000
    C165     C        0.41920    0.21870    0.42400    1.000
    C166     C        0.47480    0.14920    0.43160    1.000
    C167     C        0.52920    0.15610    0.46500    1.000
    H74      H        0.56330    0.10980    0.47190    1.000
    C168     C        0.53560    0.23310    0.49010    1.000
    C169     C        0.48320    0.29900    0.48080    1.000
    H75      H        0.48480    0.34880    0.49640    1.000
    C170     C        0.42720    0.29120    0.44760    1.000
    H76      H        0.39300    0.33760    0.44100    1.000
    C171     C        0.49720    0.92470    0.35670    1.000
    C172     C        0.49500    0.91860    0.39980    1.000
    H77      H        0.50010    0.86580    0.41260    1.000
    C173     C        0.48520    0.99150    0.42410    1.000
    H78      H        0.48630    0.98580    0.45290    1.000
    C174     C        0.47400    0.07080    0.40770    1.000
    C175     C        0.47250    0.07700    0.36260    1.000
    H79      H        0.46460    0.12960    0.34990    1.000
    C176     C        0.48270    0.00580    0.33880    1.000
    H80      H        0.48010    0.01060    0.31000    1.000
