# CIF file generated by openbabel 3.1.0, see https://openbabel.org
data_I
_chemical_name_common 'CODQUJ_clean'
_cell_length_a 8.9174
_cell_length_b 12.1121
_cell_length_c 16.6262
_cell_angle_alpha 90
_cell_angle_beta 90
_cell_angle_gamma 109.361
_space_group_name_H-M_alt 'P 1'
_space_group_name_Hall 'P 1'
loop_
    _symmetry_equiv_pos_as_xyz
    x,y,z
loop_
    _atom_site_label
    _atom_site_type_symbol
    _atom_site_fract_x
    _atom_site_fract_y
    _atom_site_fract_z
    _atom_site_occupancy
    Sm1      Sm       0.43358    0.45228    0.11725    1.000
    Sm2      Sm       0.06642    0.54772    0.61725    1.000
    Sm3      Sm       0.56642    0.54772    0.88275    1.000
    Sm4      Sm       0.93358    0.45228    0.38275    1.000
    H1       H        0.52940    0.21850    0.56730    1.000
    H2       H        0.90570    0.97430    0.27490    1.000
    H3       H        0.59680    0.15310    0.19360    1.000
    H4       H        0.99050    0.83540    0.42660    1.000
    H5       H        0.97060    0.78150    0.06730    1.000
    H6       H        0.41270    0.22460    0.32220    1.000
    H7       H        0.37080    0.03480    0.56700    1.000
    H8       H        0.70460    0.00500    0.08640    1.000
    H9       H        0.62280    0.63860    0.48960    1.000
    H10      H        0.49050    0.83540    0.07340    1.000
    H11      H        0.90320    0.84690    0.69360    1.000
    H12      H        0.67100    0.68060    0.66690    1.000
    H13      H        0.62920    0.96520    0.43300    1.000
    H14      H        0.50950    0.16460    0.92660    1.000
    H15      H        0.82900    0.31940    0.16690    1.000
    H16      H        0.62030    0.13740    0.53390    1.000
    H17      H        0.87970    0.86260    0.03390    1.000
    H18      H        0.32220    0.14210    0.09980    1.000
    H19      H        0.00950    0.16460    0.57340    1.000
    H20      H        0.37970    0.86260    0.46610    1.000
    H21      H        0.24430    0.29510    0.57160    1.000
    H22      H        0.12280    0.63860    0.01040    1.000
    H23      H        0.79540    0.99500    0.58640    1.000
    H24      H        0.29540    0.99500    0.91360    1.000
    H25      H        0.12030    0.13740    0.96610    1.000
    H26      H        0.12920    0.96520    0.06700    1.000
    H27      H        0.02940    0.21850    0.93270    1.000
    H28      H        0.09680    0.15310    0.30640    1.000
    H29      H        0.87080    0.03480    0.93300    1.000
    H30      H        0.32900    0.31940    0.33310    1.000
    H31      H        0.25570    0.70490    0.07160    1.000
    H32      H        0.17100    0.68060    0.83310    1.000
    H33      H        0.08730    0.77540    0.82220    1.000
    H34      H        0.40320    0.84690    0.80640    1.000
    H35      H        0.17780    0.85790    0.59980    1.000
    H36      H        0.58730    0.77540    0.67780    1.000
    H37      H        0.67780    0.85790    0.90020    1.000
    H38      H        0.75570    0.70490    0.42840    1.000
    H39      H        0.20460    0.00500    0.41360    1.000
    H40      H        0.74430    0.29510    0.92840    1.000
    H41      H        0.87720    0.36140    0.98960    1.000
    H42      H        0.09430    0.02570    0.72510    1.000
    H43      H        0.47060    0.78150    0.43270    1.000
    H44      H        0.82220    0.14210    0.40020    1.000
    H45      H        0.40570    0.97430    0.22510    1.000
    H46      H        0.37720    0.36140    0.51040    1.000
    H47      H        0.91270    0.22460    0.17780    1.000
    H48      H        0.59430    0.02570    0.77490    1.000
    C1       C        0.65730    0.35850    0.02454    1.000
    C2       C        0.23100    0.69630    0.44275    1.000
    C3       C        0.12450    0.19710    0.92652    1.000
    C4       C        0.56090    0.39050    0.29692    1.000
    C5       C        0.76900    0.30370    0.55725    1.000
    C6       C        0.49380    0.90140    0.04385    1.000
    C7       C        0.87770    0.99680    0.55148    1.000
    C8       C        0.09820    0.70460    0.79960    1.000
    C9       C        0.37770    0.99680    0.94852    1.000
    C10      C        0.73100    0.69630    0.05725    1.000
    C11      C        0.40180    0.29540    0.29960    1.000
    C12      C        0.86960    0.89730    0.50784    1.000
    C13      C        0.48800    0.00890    0.26090    1.000
    C14      C        0.87550    0.80290    0.07348    1.000
    C15      C        0.37550    0.80290    0.42652    1.000
    C16      C        0.77440    0.83510    0.79495    1.000
    C17      C        0.36960    0.89730    0.99216    1.000
    C18      C        0.27000    0.30630    0.51480    1.000
    C19      C        0.62230    0.00320    0.05148    1.000
    C20      C        0.73000    0.69370    0.48520    1.000
    C21      C        0.90180    0.29540    0.20040    1.000
    C22      C        0.06090    0.39050    0.20308    1.000
    C23      C        0.62200    0.00310    0.38520    1.000
    C24      C        0.99600    0.95420    0.16716    1.000
    C25      C        0.72560    0.16490    0.29495    1.000
    C26      C        0.60290    0.11560    0.24167    1.000
    C27      C        0.39710    0.88440    0.75833    1.000
    C28      C        0.50620    0.09860    0.95615    1.000
    C29      C        0.59820    0.70460    0.70040    1.000
    C30      C        0.76280    0.89100    0.86555    1.000
    C31      C        0.27440    0.83510    0.70505    1.000
    C32      C        0.50400    0.04580    0.66716    1.000
    C33      C        0.98800    0.00890    0.23910    1.000
    C34      C        0.00620    0.09860    0.54385    1.000
    C35      C        0.26280    0.89100    0.63445    1.000
    C36      C        0.89710    0.88440    0.74167    1.000
    C37      C        0.84270    0.64150    0.52454    1.000
    C38      C        0.77000    0.30630    0.98520    1.000
    C39      C        0.13040    0.10270    0.49216    1.000
    C40      C        0.87800    0.99690    0.88520    1.000
    C41      C        0.15730    0.35850    0.47546    1.000
    C42      C        0.34270    0.64150    0.97546    1.000
    C43      C        0.37800    0.99690    0.61480    1.000
    C44      C        0.62450    0.19710    0.57348    1.000
    C45      C        0.43910    0.60950    0.70308    1.000
    C46      C        0.99380    0.90140    0.45615    1.000
    C47      C        0.73720    0.10900    0.36555    1.000
    C48      C        0.23720    0.10900    0.13445    1.000
    C49      C        0.01200    0.99110    0.76090    1.000
    C50      C        0.63040    0.10270    0.00784    1.000
    C51      C        0.10290    0.11560    0.25833    1.000
    C52      C        0.12230    0.00320    0.44852    1.000
    C53      C        0.23000    0.69370    0.01480    1.000
    C54      C        0.22560    0.16490    0.20505    1.000
    C55      C        0.51200    0.99110    0.73910    1.000
    C56      C        0.26900    0.30370    0.94275    1.000
    C57      C        0.00400    0.04580    0.83284    1.000
    C58      C        0.12200    0.00310    0.11480    1.000
    C59      C        0.49600    0.95420    0.33284    1.000
    C60      C        0.93910    0.60950    0.79692    1.000
    O1       O        0.35130    0.60002    0.64304    1.000
    O2       O        0.33960    0.36717    0.88552    1.000
    O3       O        0.37460    0.84973    0.34858    1.000
    O4       O        0.30150    0.31840    0.01605    1.000
    O5       O        0.66040    0.63283    0.11448    1.000
    O6       O        0.59450    0.45494    0.23584    1.000
    O7       O        0.76640    0.19746    0.01890    1.000
    O8       O        0.26640    0.19746    0.48110    1.000
    O9       O        0.37020    0.55767    0.01044    1.000
    O10      O        0.19850    0.68160    0.51605    1.000
    O11      O        0.62540    0.15027    0.65142    1.000
    O12      O        0.34140    0.27388    0.21865    1.000
    O13      O        0.09860    0.32355    0.40841    1.000
    O14      O        0.12980    0.44233    0.51044    1.000
    O15      O        0.84140    0.27388    0.28135    1.000
    O16      O        0.09450    0.45494    0.26416    1.000
    O17      O        0.65860    0.72612    0.78135    1.000
    O18      O        0.73360    0.80254    0.51890    1.000
    O19      O        0.59860    0.32355    0.09159    1.000
    O20      O        0.83960    0.36717    0.61448    1.000
    O21      O        0.23360    0.80254    0.98110    1.000
    O22      O        0.62980    0.44233    0.98956    1.000
    O23      O        0.64870    0.39998    0.35696    1.000
    O24      O        0.15860    0.72612    0.71865    1.000
    O25      O        0.80150    0.31840    0.48395    1.000
    O26      O        0.87460    0.84973    0.15142    1.000
    O27      O        0.40140    0.67645    0.90841    1.000
    O28      O        0.14870    0.39998    0.14304    1.000
    O29      O        0.69850    0.68160    0.98395    1.000
    O30      O        0.85130    0.60002    0.85696    1.000
    O31      O        0.12540    0.15027    0.84858    1.000
    O32      O        0.40550    0.54506    0.76416    1.000
    O33      O        0.90140    0.67645    0.59159    1.000
    O34      O        0.16040    0.63283    0.38552    1.000
    O35      O        0.87020    0.55767    0.48956    1.000
    O36      O        0.90550    0.54506    0.73584    1.000
