# CIF file generated by openbabel 3.1.0, see https://openbabel.org
data_I
_chemical_name_common 'GIQYAH_clean'
_cell_length_a 9.5515
_cell_length_b 9.5515
_cell_length_c 15.39
_cell_angle_alpha 92.7105
_cell_angle_beta 92.7105
_cell_angle_gamma 98.2997
_space_group_name_H-M_alt 'P 1'
_space_group_name_Hall 'P 1'
loop_
    _symmetry_equiv_pos_as_xyz
    x,y,z
loop_
    _atom_site_label
    _atom_site_type_symbol
    _atom_site_fract_x
    _atom_site_fract_y
    _atom_site_fract_z
    _atom_site_occupancy
    Ho1      Ho       0.00995    0.99005    0.75000    1.000
    Ho2      Ho       0.99005    0.00995    0.25000    1.000
    P1       P        0.35318    0.04408    0.64512    1.000
    P2       P        0.65288    0.97686    0.65454    1.000
    P3       P        0.95592    0.64682    0.85488    1.000
    P4       P        0.02314    0.34712    0.84546    1.000
    P5       P        0.64682    0.95592    0.35488    1.000
    P6       P        0.34712    0.02314    0.34546    1.000
    P7       P        0.04408    0.35318    0.14512    1.000
    P8       P        0.97686    0.65288    0.15454    1.000
    H1       H        0.42470    0.83110    0.73560    1.000
    H2       H        0.47140    0.16600    0.81340    1.000
    H3       H        0.62830    0.12570    0.81810    1.000
    H4       H        0.58380    0.22940    0.74640    1.000
    H5       H        0.16890    0.57530    0.76440    1.000
    H6       H        0.83400    0.52860    0.68660    1.000
    H7       H        0.87430    0.37170    0.68190    1.000
    H8       H        0.77060    0.41620    0.75360    1.000
    H9       H        0.57530    0.16890    0.26440    1.000
    H10      H        0.52860    0.83400    0.18660    1.000
    H11      H        0.37170    0.87430    0.18190    1.000
    H12      H        0.41620    0.77060    0.25360    1.000
    H13      H        0.83110    0.42470    0.23560    1.000
    H14      H        0.16600    0.47140    0.31340    1.000
    H15      H        0.12570    0.62830    0.31810    1.000
    H16      H        0.22940    0.58380    0.24640    1.000
    Ru1      Ru       0.54530    0.12146    0.50194    1.000
    Ru2      Ru       0.87854    0.45470    0.99806    1.000
    Ru3      Ru       0.45470    0.87854    0.49806    1.000
    Ru4      Ru       0.12146    0.54530    0.00194    1.000
    C1       C        0.50310    0.02070    0.71630    1.000
    C2       C        0.55090    0.14650    0.77900    1.000
    C3       C        0.97930    0.49690    0.78370    1.000
    C4       C        0.85350    0.44910    0.72100    1.000
    C5       C        0.49690    0.97930    0.28370    1.000
    C6       C        0.44910    0.85350    0.22100    1.000
    C7       C        0.02070    0.50310    0.21630    1.000
    C8       C        0.14650    0.55090    0.27900    1.000
    O1       O        0.40480    0.16480    0.58680    1.000
    O2       O        0.30810    0.90970    0.58620    1.000
    O3       O        0.23330    0.07150    0.69790    1.000
    O4       O        0.69270    0.10550    0.59810    1.000
    O5       O        0.59550    0.84410    0.59360    1.000
    O6       O        0.77150    0.95230    0.71410    1.000
    O7       O        0.45500    0.90160    0.77050    1.000
    O8       O        0.83520    0.59520    0.91320    1.000
    O9       O        0.09030    0.69190    0.91380    1.000
    O10      O        0.92850    0.76670    0.80210    1.000
    O11      O        0.89450    0.30730    0.90190    1.000
    O12      O        0.15590    0.40450    0.90640    1.000
    O13      O        0.04770    0.22850    0.78590    1.000
    O14      O        0.09840    0.54500    0.72950    1.000
    O15      O        0.59520    0.83520    0.41320    1.000
    O16      O        0.69190    0.09030    0.41380    1.000
    O17      O        0.76670    0.92850    0.30210    1.000
    O18      O        0.30730    0.89450    0.40190    1.000
    O19      O        0.40450    0.15590    0.40640    1.000
    O20      O        0.22850    0.04770    0.28590    1.000
    O21      O        0.54500    0.09840    0.22950    1.000
    O22      O        0.16480    0.40480    0.08680    1.000
    O23      O        0.90970    0.30810    0.08620    1.000
    O24      O        0.07150    0.23330    0.19790    1.000
    O25      O        0.10550    0.69270    0.09810    1.000
    O26      O        0.84410    0.59550    0.09360    1.000
    O27      O        0.95230    0.77150    0.21410    1.000
    O28      O        0.90160    0.45500    0.27050    1.000
