# CIF file generated by openbabel 3.1.0, see https://openbabel.org
data_I
_chemical_name_common 'image0'
_cell_length_a 34.5793
_cell_length_b 14.9292
_cell_length_c 30.6203
_cell_angle_alpha 90
_cell_angle_beta 101.179
_cell_angle_gamma 90
_space_group_name_H-M_alt 'P 1'
_space_group_name_Hall 'P 1'
loop_
    _symmetry_equiv_pos_as_xyz
    x,y,z
loop_
    _atom_site_label
    _atom_site_type_symbol
    _atom_site_fract_x
    _atom_site_fract_y
    _atom_site_fract_z
    _atom_site_occupancy
    Zn1      Zn       0.62891    0.39949    0.80643    1.000
    Zn2      Zn       0.42061    0.12881    0.65791    1.000
    Zn3      Zn       0.12882    0.10479    0.30784    1.000
    I1       I        0.61281    0.25847    0.84368    1.000
    I2       I        0.65234    0.41064    0.73422    1.000
    I3       I        0.38329    0.24107    0.69567    1.000
    I4       I        0.47731    0.15613    0.61849    1.000
    I5       I        0.15276    0.09392    0.23605    1.000
    I6       I        0.11261    0.24681    0.34417    1.000
    Zn4      Zn       0.42233    0.87590    0.15758    1.000
    Zn5      Zn       0.32642    0.63884    0.97708    1.000
    Zn6      Zn       0.32761    0.36290    0.47970    1.000
    I7       I        0.38309    0.76383    0.19407    1.000
    I8       I        0.47938    0.84865    0.11990    1.000
    I9       I        0.37207    0.66254    0.05211    1.000
    I10      I        0.26226    0.72342    0.94946    1.000
    I11      I        0.37283    0.34375    0.55565    1.000
    I12      I        0.26500    0.27454    0.45391    1.000
    N1       N        0.38310    0.94270    0.10900    1.000
    C1       C        0.35400    0.89970    0.08050    1.000
    H1       H        0.35060    0.83710    0.08380    1.000
    C2       C        0.32940    0.94480    0.04680    1.000
    H2       H        0.30750    0.91610    0.02850    1.000
    C3       C        0.33860    0.03880    0.04050    1.000
    C4       C        0.36510    0.07840    0.06960    1.000
    H3       H        0.36820    0.14160    0.06930    1.000
    C5       C        0.38790    0.02870    0.09980    1.000
    H4       H        0.41020    0.05760    0.11700    1.000
    N2       N        0.31450    0.50590    0.97270    1.000
    C6       C        0.28340    0.46790    0.94300    1.000
    H5       H        0.26520    0.50580    0.92420    1.000
    C7       C        0.27810    0.37500    0.94010    1.000
    H6       H        0.25720    0.35110    0.91860    1.000
    C8       C        0.30230    0.31870    0.96720    1.000
    C9       C        0.33250    0.36120    0.99980    1.000
    H7       H        0.35010    0.32470    0.02000    1.000
    C10      C        0.33670    0.45060    0.00250    1.000
    H8       H        0.35570    0.47570    0.02590    1.000
    N3       N        0.17060    0.96300    0.85330    1.000
    C11      C        0.19320    0.92010    0.88630    1.000
    H9       H        0.18880    0.85780    0.88930    1.000
    C12      C        0.22180    0.95870    0.91570    1.000
    H10      H        0.23720    0.92470    0.93900    1.000
    C13      C        0.22900    0.05280    0.91160    1.000
    C14      C        0.20490    0.09690    0.87920    1.000
    H11      H        0.20720    0.16000    0.87670    1.000
    C15      C        0.17630    0.05100    0.84910    1.000
    H12      H        0.16060    0.08280    0.82520    1.000
    C16      C        0.31210    0.08980    0.00150    1.000
    N4       N        0.31950    0.17550    0.00000    1.000
    C17      C        0.29730    0.22220    0.96880    1.000
    N5       N        0.26680    0.18270    0.93880    1.000
    C18      C        0.26340    0.10150    0.94230    1.000
    N6       N        0.28190    0.04500    0.97380    1.000
    N7       N        0.35810    0.65150    0.92900    1.000
    C19      C        0.35060    0.72210    0.89620    1.000
    H13      H        0.32730    0.75710    0.89410    1.000
    C20      C        0.37560    0.74010    0.86820    1.000
    H14      H        0.37090    0.79020    0.84880    1.000
    C21      C        0.40750    0.68700    0.86780    1.000
    C22      C        0.41350    0.61420    0.89730    1.000
    H15      H        0.43420    0.57270    0.89660    1.000
    C23      C        0.38940    0.60430    0.92690    1.000
    H16      H        0.39590    0.55800    0.94840    1.000
    N8       N        0.58000    0.48260    0.80230    1.000
    C24      C        0.56550    0.49730    0.83720    1.000
    H17      H        0.57830    0.47060    0.86430    1.000
    C25      C        0.53320    0.54820    0.83810    1.000
    H18      H        0.52140    0.54780    0.86370    1.000
    C26      C        0.51760    0.60030    0.80220    1.000
    C27      C        0.53630    0.59080    0.76660    1.000
    H19      H        0.52730    0.62460    0.74030    1.000
    C28      C        0.56800    0.53270    0.76830    1.000
    H20      H        0.58110    0.53020    0.74380    1.000
    N9       N        0.43520    0.02500    0.70330    1.000
    C29      C        0.41090    0.99950    0.72940    1.000
    H21      H        0.38810    0.03540    0.72900    1.000
    C30      C        0.41500    0.93220    0.75470    1.000
    H22      H        0.39770    0.92260    0.77480    1.000
    C31      C        0.44650    0.86980    0.75260    1.000
    C32      C        0.47280    0.88810    0.72530    1.000
    H23      H        0.49370    0.84850    0.72250    1.000
    C33      C        0.46680    0.96810    0.70220    1.000
    H24      H        0.48530    0.98520    0.68460    1.000
    C34      C        0.43190    0.70130    0.83560    1.000
    N10      N        0.46230    0.64160    0.83290    1.000
    C35      C        0.48380    0.66200    0.80300    1.000
    N11      N        0.48020    0.72490    0.77470    1.000
    C36      C        0.45060    0.78320    0.78190    1.000
    N12      N        0.42720    0.77430    0.80900    1.000
    N13      N        0.38080    0.05760    0.61040    1.000
    C37      C        0.38720    0.97050    0.60730    1.000
    H25      H        0.40470    0.93900    0.62990    1.000
    C38      C        0.36560    0.92490    0.56690    1.000
    H26      H        0.37320    0.86630    0.55990    1.000
    C39      C        0.33400    0.96720    0.53880    1.000
    C40      C        0.33050    0.05320    0.54550    1.000
    H27      H        0.31240    0.08720    0.52460    1.000
    C41      C        0.35310    0.09680    0.58320    1.000
    H28      H        0.34740    0.15760    0.58850    1.000
    N14      N        0.31450    0.50250    0.47320    1.000
    C42      C        0.34040    0.55630    0.49700    1.000
    H29      H        0.36340    0.53160    0.51510    1.000
    C43      C        0.33490    0.64970    0.49640    1.000
    H30      H        0.35340    0.68770    0.51460    1.000
    C44      C        0.30320    0.68420    0.46960    1.000
    C45      C        0.27810    0.62600    0.44200    1.000
    H31      H        0.25630    0.64700    0.42070    1.000
    C46      C        0.28710    0.53280    0.44750    1.000
    H32      H        0.27010    0.49180    0.42940    1.000
    N15      N        0.17020    0.03600    0.35390    1.000
    C47      C        0.17840    0.95170    0.34930    1.000
    H33      H        0.16270    0.92000    0.32540    1.000
    C48      C        0.20780    0.90520    0.37630    1.000
    H34      H        0.21270    0.84410    0.37060    1.000
    C49      C        0.23050    0.95010    0.41230    1.000
    C50      C        0.22260    0.03860    0.41890    1.000
    H35      H        0.23760    0.07050    0.44330    1.000
    C51      C        0.19290    0.08040    0.39010    1.000
    H36      H        0.18760    0.14170    0.39490    1.000
    C52      C        0.31120    0.91480    0.50460    1.000
    N16      N        0.32210    0.82920    0.50050    1.000
    C53      C        0.29590    0.78350    0.46820    1.000
    N17      N        0.26740    0.81540    0.43790    1.000
    C54      C        0.26000    0.90740    0.44470    1.000
    N18      N        0.28300    0.95400    0.47800    1.000
    N19      N        0.08190    0.02010    0.30560    1.000
    C55      C        0.06570    0.97210    0.26760    1.000
    H37      H        0.07680    0.97880    0.24170    1.000
    C56      C        0.03390    0.91450    0.26620    1.000
    H38      H        0.02390    0.87980    0.24050    1.000
    C57      C        0.01750    0.91000    0.30420    1.000
    C58      C        0.03320    0.95600    0.34400    1.000
    H39      H        0.02420    0.94700    0.37100    1.000
    C59      C        0.06370    0.01700    0.33970    1.000
    H40      H        0.07170    0.05850    0.36320    1.000
    N20      N        0.85970    0.84040    0.42960    1.000
    C60      C        0.89440    0.88610    0.43350    1.000
    H41      H        0.90150    0.92750    0.45730    1.000
    C61      C        0.91970    0.87430    0.40390    1.000
    H42      H        0.94410    0.90510    0.40810    1.000
    C62      C        0.90860    0.81660    0.36820    1.000
    C63      C        0.87220    0.77300    0.36470    1.000
    H43      H        0.86330    0.73140    0.34140    1.000
    C64      C        0.84900    0.79330    0.39740    1.000
    H44      H        0.82330    0.76790    0.39360    1.000
    N21      N        0.93750    0.48360    0.20200    1.000
    C65      C        0.96540    0.53740    0.20040    1.000
    H45      H        0.98220    0.52640    0.17980    1.000
    C66      C        0.97220    0.61160    0.22750    1.000
    H46      H        0.99480    0.64760    0.22720    1.000
    C67      C        0.94620    0.63500    0.25580    1.000
    C68      C        0.91840    0.57850    0.25920    1.000
    H47      H        0.90120    0.59020    0.27920    1.000
    C69      C        0.91340    0.49510    0.23190    1.000
    H48      H        0.89410    0.45170    0.23520    1.000
    C70      C        0.98430    0.84680    0.30520    1.000
    N22      N        0.96200    0.85970    0.33560    1.000
    C71      C        0.93520    0.80230    0.33630    1.000
    N23      N        0.92670    0.72640    0.31110    1.000
    C72      C        0.95110    0.71550    0.28140    1.000
    N24      N        0.97900    0.77240    0.27650    1.000
    Zn7      Zn       0.41480    0.88000    0.16200    1.000
    Zn8      Zn       0.30760    0.64700    0.96360    1.000
    Zn9      Zn       0.31460    0.35780    0.46630    1.000
    I13      I        0.36820    0.77750    0.19300    1.000
    I14      I        0.46900    0.83600    0.14220    1.000
    I15      I        0.24400    0.70990    0.91820    1.000
    I16      I        0.34060    0.69240    0.03280    1.000
    I17      I        0.35690    0.32790    0.54290    1.000
    I18      I        0.25240    0.28590    0.43450    1.000
    Zn10     Zn       0.12891    0.89949    0.80643    1.000
    Zn11     Zn       0.92061    0.62881    0.65791    1.000
    Zn12     Zn       0.62882    0.60479    0.30784    1.000
    I19      I        0.11281    0.75847    0.84368    1.000
    I20      I        0.15234    0.91064    0.73422    1.000
    I21      I        0.88329    0.74107    0.69567    1.000
    I22      I        0.97731    0.65613    0.61849    1.000
    I23      I        0.65276    0.59392    0.23605    1.000
    I24      I        0.61261    0.74681    0.34417    1.000
    Zn13     Zn       0.92233    0.37590    0.15758    1.000
    Zn14     Zn       0.82642    0.13884    0.97708    1.000
    Zn15     Zn       0.82761    0.86290    0.47970    1.000
    I25      I        0.88309    0.26383    0.19407    1.000
    I26      I        0.97938    0.34865    0.11990    1.000
    I27      I        0.87207    0.16254    0.05211    1.000
    I28      I        0.76226    0.22342    0.94946    1.000
    I29      I        0.87283    0.84375    0.55565    1.000
    I30      I        0.76500    0.77454    0.45391    1.000
    N25      N        0.88310    0.44270    0.10900    1.000
    C73      C        0.85400    0.39970    0.08050    1.000
    H49      H        0.85060    0.33710    0.08380    1.000
    C74      C        0.82940    0.44480    0.04680    1.000
    H50      H        0.80750    0.41610    0.02850    1.000
    C75      C        0.83860    0.53880    0.04050    1.000
    C76      C        0.86510    0.57840    0.06960    1.000
    H51      H        0.86820    0.64160    0.06930    1.000
    C77      C        0.88790    0.52870    0.09980    1.000
    H52      H        0.91020    0.55760    0.11700    1.000
    N26      N        0.81450    0.00590    0.97270    1.000
    C78      C        0.78340    0.96790    0.94300    1.000
    H53      H        0.76520    0.00580    0.92420    1.000
    C79      C        0.77810    0.87500    0.94010    1.000
    H54      H        0.75720    0.85110    0.91860    1.000
    C80      C        0.80230    0.81870    0.96720    1.000
    C81      C        0.83250    0.86120    0.99980    1.000
    H55      H        0.85010    0.82470    0.02000    1.000
    C82      C        0.83670    0.95060    0.00250    1.000
    H56      H        0.85570    0.97570    0.02590    1.000
    N27      N        0.67060    0.46300    0.85330    1.000
    C83      C        0.69320    0.42010    0.88630    1.000
    H57      H        0.68880    0.35780    0.88930    1.000
    C84      C        0.72180    0.45870    0.91570    1.000
    H58      H        0.73720    0.42470    0.93900    1.000
    C85      C        0.72900    0.55280    0.91160    1.000
    C86      C        0.70490    0.59690    0.87920    1.000
    H59      H        0.70720    0.66000    0.87670    1.000
    C87      C        0.67630    0.55100    0.84910    1.000
    H60      H        0.66060    0.58280    0.82520    1.000
    C88      C        0.81210    0.58980    0.00150    1.000
    N28      N        0.81950    0.67550    0.00000    1.000
    C89      C        0.79730    0.72220    0.96880    1.000
    N29      N        0.76680    0.68270    0.93880    1.000
    C90      C        0.76340    0.60150    0.94230    1.000
    N30      N        0.78190    0.54500    0.97380    1.000
    N31      N        0.85810    0.15150    0.92900    1.000
    C91      C        0.85060    0.22210    0.89620    1.000
    H61      H        0.82730    0.25710    0.89410    1.000
    C92      C        0.87560    0.24010    0.86820    1.000
    H62      H        0.87090    0.29020    0.84880    1.000
    C93      C        0.90750    0.18700    0.86780    1.000
    C94      C        0.91350    0.11420    0.89730    1.000
    H63      H        0.93420    0.07270    0.89660    1.000
    C95      C        0.88940    0.10430    0.92690    1.000
    H64      H        0.89590    0.05800    0.94840    1.000
    N32      N        0.08000    0.98260    0.80230    1.000
    C96      C        0.06550    0.99730    0.83720    1.000
    H65      H        0.07830    0.97060    0.86430    1.000
    C97      C        0.03320    0.04820    0.83810    1.000
    H66      H        0.02140    0.04780    0.86370    1.000
    C98      C        0.01760    0.10030    0.80220    1.000
    C99      C        0.03630    0.09080    0.76660    1.000
    H67      H        0.02730    0.12460    0.74030    1.000
    C100     C        0.06800    0.03270    0.76830    1.000
    H68      H        0.08110    0.03020    0.74380    1.000
    N33      N        0.93520    0.52500    0.70330    1.000
    C101     C        0.91090    0.49950    0.72940    1.000
    H69      H        0.88810    0.53540    0.72900    1.000
    C102     C        0.91500    0.43220    0.75470    1.000
    H70      H        0.89770    0.42260    0.77480    1.000
    C103     C        0.94650    0.36980    0.75260    1.000
    C104     C        0.97280    0.38810    0.72530    1.000
    H71      H        0.99370    0.34850    0.72250    1.000
    C105     C        0.96680    0.46810    0.70220    1.000
    H72      H        0.98530    0.48520    0.68460    1.000
    C106     C        0.93190    0.20130    0.83560    1.000
    N34      N        0.96230    0.14160    0.83290    1.000
    C107     C        0.98380    0.16200    0.80300    1.000
    N35      N        0.98020    0.22490    0.77470    1.000
    C108     C        0.95060    0.28320    0.78190    1.000
    N36      N        0.92720    0.27430    0.80900    1.000
    N37      N        0.88080    0.55760    0.61040    1.000
    C109     C        0.88720    0.47050    0.60730    1.000
    H73      H        0.90470    0.43900    0.62990    1.000
    C110     C        0.86560    0.42490    0.56690    1.000
    H74      H        0.87320    0.36630    0.55990    1.000
    C111     C        0.83400    0.46720    0.53880    1.000
    C112     C        0.83050    0.55320    0.54550    1.000
    H75      H        0.81240    0.58720    0.52460    1.000
    C113     C        0.85310    0.59680    0.58320    1.000
    H76      H        0.84740    0.65760    0.58850    1.000
    N38      N        0.81450    0.00250    0.47320    1.000
    C114     C        0.84040    0.05630    0.49700    1.000
    H77      H        0.86340    0.03160    0.51510    1.000
    C115     C        0.83490    0.14970    0.49640    1.000
    H78      H        0.85340    0.18770    0.51460    1.000
    C116     C        0.80320    0.18420    0.46960    1.000
    C117     C        0.77810    0.12600    0.44200    1.000
    H79      H        0.75630    0.14700    0.42070    1.000
    C118     C        0.78710    0.03280    0.44750    1.000
    H80      H        0.77010    0.99180    0.42940    1.000
    N39      N        0.67020    0.53600    0.35390    1.000
    C119     C        0.67840    0.45170    0.34930    1.000
    H81      H        0.66270    0.42000    0.32540    1.000
    C120     C        0.70780    0.40520    0.37630    1.000
    H82      H        0.71270    0.34410    0.37060    1.000
    C121     C        0.73050    0.45010    0.41230    1.000
    C122     C        0.72260    0.53860    0.41890    1.000
    H83      H        0.73760    0.57050    0.44330    1.000
    C123     C        0.69290    0.58040    0.39010    1.000
    H84      H        0.68760    0.64170    0.39490    1.000
    C124     C        0.81120    0.41480    0.50460    1.000
    N40      N        0.82210    0.32920    0.50050    1.000
    C125     C        0.79590    0.28350    0.46820    1.000
    N41      N        0.76740    0.31540    0.43790    1.000
    C126     C        0.76000    0.40740    0.44470    1.000
    N42      N        0.78300    0.45400    0.47800    1.000
    N43      N        0.58190    0.52010    0.30560    1.000
    C127     C        0.56570    0.47210    0.26760    1.000
    H85      H        0.57680    0.47880    0.24170    1.000
    C128     C        0.53390    0.41450    0.26620    1.000
    H86      H        0.52390    0.37980    0.24050    1.000
    C129     C        0.51750    0.41000    0.30420    1.000
    C130     C        0.53320    0.45600    0.34400    1.000
    H87      H        0.52420    0.44700    0.37100    1.000
    C131     C        0.56370    0.51700    0.33970    1.000
    H88      H        0.57170    0.55850    0.36320    1.000
    N44      N        0.35970    0.34040    0.42960    1.000
    C132     C        0.39440    0.38610    0.43350    1.000
    H89      H        0.40150    0.42750    0.45730    1.000
    C133     C        0.41970    0.37430    0.40390    1.000
    H90      H        0.44410    0.40510    0.40810    1.000
    C134     C        0.40860    0.31660    0.36820    1.000
    C135     C        0.37220    0.27300    0.36470    1.000
    H91      H        0.36330    0.23140    0.34140    1.000
    C136     C        0.34900    0.29330    0.39740    1.000
    H92      H        0.32330    0.26790    0.39360    1.000
    N45      N        0.43750    0.98360    0.20200    1.000
    C137     C        0.46540    0.03740    0.20040    1.000
    H93      H        0.48220    0.02640    0.17980    1.000
    C138     C        0.47220    0.11160    0.22750    1.000
    H94      H        0.49480    0.14760    0.22720    1.000
    C139     C        0.44620    0.13500    0.25580    1.000
    C140     C        0.41840    0.07850    0.25920    1.000
    H95      H        0.40120    0.09020    0.27920    1.000
    C141     C        0.41340    0.99510    0.23190    1.000
    H96      H        0.39410    0.95170    0.23520    1.000
    C142     C        0.48430    0.34680    0.30520    1.000
    N46      N        0.46200    0.35970    0.33560    1.000
    C143     C        0.43520    0.30230    0.33630    1.000
    N47      N        0.42670    0.22640    0.31110    1.000
    C144     C        0.45110    0.21550    0.28140    1.000
    N48      N        0.47900    0.27240    0.27650    1.000
    Zn16     Zn       0.91480    0.38000    0.16200    1.000
    Zn17     Zn       0.80760    0.14700    0.96360    1.000
    Zn18     Zn       0.81460    0.85780    0.46630    1.000
    I31      I        0.86820    0.27750    0.19300    1.000
    I32      I        0.96900    0.33600    0.14220    1.000
    I33      I        0.74400    0.20990    0.91820    1.000
    I34      I        0.84060    0.19240    0.03280    1.000
    I35      I        0.85690    0.82790    0.54290    1.000
    I36      I        0.75240    0.78590    0.43450    1.000
    Zn19     Zn       0.37109    0.39949    0.19357    1.000
    Zn20     Zn       0.57939    0.12881    0.34209    1.000
    Zn21     Zn       0.87118    0.10479    0.69216    1.000
    I37      I        0.38719    0.25847    0.15632    1.000
    I38      I        0.34766    0.41064    0.26578    1.000
    I39      I        0.61671    0.24107    0.30433    1.000
    I40      I        0.52269    0.15613    0.38151    1.000
    I41      I        0.84724    0.09392    0.76395    1.000
    I42      I        0.88739    0.24681    0.65583    1.000
    Zn22     Zn       0.57767    0.87590    0.84242    1.000
    Zn23     Zn       0.67358    0.63884    0.02292    1.000
    Zn24     Zn       0.67239    0.36290    0.52030    1.000
    I43      I        0.61691    0.76383    0.80593    1.000
    I44      I        0.52062    0.84865    0.88010    1.000
    I45      I        0.62793    0.66254    0.94789    1.000
    I46      I        0.73774    0.72342    0.05054    1.000
    I47      I        0.62717    0.34375    0.44435    1.000
    I48      I        0.73500    0.27454    0.54609    1.000
    N49      N        0.61690    0.94270    0.89100    1.000
    C145     C        0.64600    0.89970    0.91950    1.000
    H97      H        0.64940    0.83710    0.91620    1.000
    C146     C        0.67060    0.94480    0.95320    1.000
    H98      H        0.69250    0.91610    0.97150    1.000
    C147     C        0.66140    0.03880    0.95950    1.000
    C148     C        0.63490    0.07840    0.93040    1.000
    H99      H        0.63180    0.14160    0.93070    1.000
    C149     C        0.61210    0.02870    0.90020    1.000
    H100     H        0.58980    0.05760    0.88300    1.000
    N50      N        0.68550    0.50590    0.02730    1.000
    C150     C        0.71660    0.46790    0.05700    1.000
    H101     H        0.73480    0.50580    0.07580    1.000
    C151     C        0.72190    0.37500    0.05990    1.000
    H102     H        0.74280    0.35110    0.08140    1.000
    C152     C        0.69770    0.31870    0.03280    1.000
    C153     C        0.66750    0.36120    0.00020    1.000
    H103     H        0.64990    0.32470    0.98000    1.000
    C154     C        0.66330    0.45060    0.99750    1.000
    H104     H        0.64430    0.47570    0.97410    1.000
    N51      N        0.82940    0.96300    0.14670    1.000
    C155     C        0.80680    0.92010    0.11370    1.000
    H105     H        0.81120    0.85780    0.11070    1.000
    C156     C        0.77820    0.95870    0.08430    1.000
    H106     H        0.76280    0.92470    0.06100    1.000
    C157     C        0.77100    0.05280    0.08840    1.000
    C158     C        0.79510    0.09690    0.12080    1.000
    H107     H        0.79280    0.16000    0.12330    1.000
    C159     C        0.82370    0.05100    0.15090    1.000
    H108     H        0.83940    0.08280    0.17480    1.000
    C160     C        0.68790    0.08980    0.99850    1.000
    N52      N        0.68050    0.17550    0.00000    1.000
    C161     C        0.70270    0.22220    0.03120    1.000
    N53      N        0.73320    0.18270    0.06120    1.000
    C162     C        0.73660    0.10150    0.05770    1.000
    N54      N        0.71810    0.04500    0.02620    1.000
    N55      N        0.64190    0.65150    0.07100    1.000
    C163     C        0.64940    0.72210    0.10380    1.000
    H109     H        0.67270    0.75710    0.10590    1.000
    C164     C        0.62440    0.74010    0.13180    1.000
    H110     H        0.62910    0.79020    0.15120    1.000
    C165     C        0.59250    0.68700    0.13220    1.000
    C166     C        0.58650    0.61420    0.10270    1.000
    H111     H        0.56580    0.57270    0.10340    1.000
    C167     C        0.61060    0.60430    0.07310    1.000
    H112     H        0.60410    0.55800    0.05160    1.000
    N56      N        0.42000    0.48260    0.19770    1.000
    C168     C        0.43450    0.49730    0.16280    1.000
    H113     H        0.42170    0.47060    0.13570    1.000
    C169     C        0.46680    0.54820    0.16190    1.000
    H114     H        0.47860    0.54780    0.13630    1.000
    C170     C        0.48240    0.60030    0.19780    1.000
    C171     C        0.46370    0.59080    0.23340    1.000
    H115     H        0.47270    0.62460    0.25970    1.000
    C172     C        0.43200    0.53270    0.23170    1.000
    H116     H        0.41890    0.53020    0.25620    1.000
    N57      N        0.56480    0.02500    0.29670    1.000
    C173     C        0.58910    0.99950    0.27060    1.000
    H117     H        0.61190    0.03540    0.27100    1.000
    C174     C        0.58500    0.93220    0.24530    1.000
    H118     H        0.60230    0.92260    0.22520    1.000
    C175     C        0.55350    0.86980    0.24740    1.000
    C176     C        0.52720    0.88810    0.27470    1.000
    H119     H        0.50630    0.84850    0.27750    1.000
    C177     C        0.53320    0.96810    0.29780    1.000
    H120     H        0.51470    0.98520    0.31540    1.000
    C178     C        0.56810    0.70130    0.16440    1.000
    N58      N        0.53770    0.64160    0.16710    1.000
    C179     C        0.51620    0.66200    0.19700    1.000
    N59      N        0.51980    0.72490    0.22530    1.000
    C180     C        0.54940    0.78320    0.21810    1.000
    N60      N        0.57280    0.77430    0.19100    1.000
    N61      N        0.61920    0.05760    0.38960    1.000
    C181     C        0.61280    0.97050    0.39270    1.000
    H121     H        0.59530    0.93900    0.37010    1.000
    C182     C        0.63440    0.92490    0.43310    1.000
    H122     H        0.62680    0.86630    0.44010    1.000
    C183     C        0.66600    0.96720    0.46120    1.000
    C184     C        0.66950    0.05320    0.45450    1.000
    H123     H        0.68760    0.08720    0.47540    1.000
    C185     C        0.64690    0.09680    0.41680    1.000
    H124     H        0.65260    0.15760    0.41150    1.000
    N62      N        0.68550    0.50250    0.52680    1.000
    C186     C        0.65960    0.55630    0.50300    1.000
    H125     H        0.63660    0.53160    0.48490    1.000
    C187     C        0.66510    0.64970    0.50360    1.000
    H126     H        0.64660    0.68770    0.48540    1.000
    C188     C        0.69680    0.68420    0.53040    1.000
    C189     C        0.72190    0.62600    0.55800    1.000
    H127     H        0.74370    0.64700    0.57930    1.000
    C190     C        0.71290    0.53280    0.55250    1.000
    H128     H        0.72990    0.49180    0.57060    1.000
    N63      N        0.82980    0.03600    0.64610    1.000
    C191     C        0.82160    0.95170    0.65070    1.000
    H129     H        0.83730    0.92000    0.67460    1.000
    C192     C        0.79220    0.90520    0.62370    1.000
    H130     H        0.78730    0.84410    0.62940    1.000
    C193     C        0.76950    0.95010    0.58770    1.000
    C194     C        0.77740    0.03860    0.58110    1.000
    H131     H        0.76240    0.07050    0.55670    1.000
    C195     C        0.80710    0.08040    0.60990    1.000
    H132     H        0.81240    0.14170    0.60510    1.000
    C196     C        0.68880    0.91480    0.49540    1.000
    N64      N        0.67790    0.82920    0.49950    1.000
    C197     C        0.70410    0.78350    0.53180    1.000
    N65      N        0.73260    0.81540    0.56210    1.000
    C198     C        0.74000    0.90740    0.55530    1.000
    N66      N        0.71700    0.95400    0.52200    1.000
    N67      N        0.91810    0.02010    0.69440    1.000
    C199     C        0.93430    0.97210    0.73240    1.000
    H133     H        0.92320    0.97880    0.75830    1.000
    C200     C        0.96610    0.91450    0.73380    1.000
    H134     H        0.97610    0.87980    0.75950    1.000
    C201     C        0.98250    0.91000    0.69580    1.000
    C202     C        0.96680    0.95600    0.65600    1.000
    H135     H        0.97580    0.94700    0.62900    1.000
    C203     C        0.93630    0.01700    0.66030    1.000
    H136     H        0.92830    0.05850    0.63680    1.000
    N68      N        0.14030    0.84040    0.57040    1.000
    C204     C        0.10560    0.88610    0.56650    1.000
    H137     H        0.09850    0.92750    0.54270    1.000
    C205     C        0.08030    0.87430    0.59610    1.000
    H138     H        0.05590    0.90510    0.59190    1.000
    C206     C        0.09140    0.81660    0.63180    1.000
    C207     C        0.12780    0.77300    0.63530    1.000
    H139     H        0.13670    0.73140    0.65860    1.000
    C208     C        0.15100    0.79330    0.60260    1.000
    H140     H        0.17670    0.76790    0.60640    1.000
    N69      N        0.06250    0.48360    0.79800    1.000
    C209     C        0.03460    0.53740    0.79960    1.000
    H141     H        0.01780    0.52640    0.82020    1.000
    C210     C        0.02780    0.61160    0.77250    1.000
    H142     H        0.00520    0.64760    0.77280    1.000
    C211     C        0.05380    0.63500    0.74420    1.000
    C212     C        0.08160    0.57850    0.74080    1.000
    H143     H        0.09880    0.59020    0.72080    1.000
    C213     C        0.08660    0.49510    0.76810    1.000
    H144     H        0.10590    0.45170    0.76480    1.000
    C214     C        0.01570    0.84680    0.69480    1.000
    N70      N        0.03800    0.85970    0.66440    1.000
    C215     C        0.06480    0.80230    0.66370    1.000
    N71      N        0.07330    0.72640    0.68890    1.000
    C216     C        0.04890    0.71550    0.71860    1.000
    N72      N        0.02100    0.77240    0.72350    1.000
    Zn25     Zn       0.58520    0.88000    0.83800    1.000
    Zn26     Zn       0.69240    0.64700    0.03640    1.000
    Zn27     Zn       0.68540    0.35780    0.53370    1.000
    I49      I        0.63180    0.77750    0.80700    1.000
    I50      I        0.53100    0.83600    0.85780    1.000
    I51      I        0.75600    0.70990    0.08180    1.000
    I52      I        0.65940    0.69240    0.96720    1.000
    I53      I        0.64310    0.32790    0.45710    1.000
    I54      I        0.74760    0.28590    0.56550    1.000
    Zn28     Zn       0.87109    0.89949    0.19357    1.000
    Zn29     Zn       0.07939    0.62881    0.34209    1.000
    Zn30     Zn       0.37118    0.60479    0.69216    1.000
    I55      I        0.88719    0.75847    0.15632    1.000
    I56      I        0.84766    0.91064    0.26578    1.000
    I57      I        0.11671    0.74107    0.30433    1.000
    I58      I        0.02269    0.65613    0.38151    1.000
    I59      I        0.34724    0.59392    0.76395    1.000
    I60      I        0.38739    0.74681    0.65583    1.000
    Zn31     Zn       0.07767    0.37590    0.84242    1.000
    Zn32     Zn       0.17358    0.13884    0.02292    1.000
    Zn33     Zn       0.17239    0.86290    0.52030    1.000
    I61      I        0.11691    0.26383    0.80593    1.000
    I62      I        0.02062    0.34865    0.88010    1.000
    I63      I        0.12793    0.16254    0.94789    1.000
    I64      I        0.23774    0.22342    0.05054    1.000
    I65      I        0.12717    0.84375    0.44435    1.000
    I66      I        0.23500    0.77454    0.54609    1.000
    N73      N        0.11690    0.44270    0.89100    1.000
    C217     C        0.14600    0.39970    0.91950    1.000
    H145     H        0.14940    0.33710    0.91620    1.000
    C218     C        0.17060    0.44480    0.95320    1.000
    H146     H        0.19250    0.41610    0.97150    1.000
    C219     C        0.16140    0.53880    0.95950    1.000
    C220     C        0.13490    0.57840    0.93040    1.000
    H147     H        0.13180    0.64160    0.93070    1.000
    C221     C        0.11210    0.52870    0.90020    1.000
    H148     H        0.08980    0.55760    0.88300    1.000
    N74      N        0.18550    0.00590    0.02730    1.000
    C222     C        0.21660    0.96790    0.05700    1.000
    H149     H        0.23480    0.00580    0.07580    1.000
    C223     C        0.22190    0.87500    0.05990    1.000
    H150     H        0.24280    0.85110    0.08140    1.000
    C224     C        0.19770    0.81870    0.03280    1.000
    C225     C        0.16750    0.86120    0.00020    1.000
    H151     H        0.14990    0.82470    0.98000    1.000
    C226     C        0.16330    0.95060    0.99750    1.000
    H152     H        0.14430    0.97570    0.97410    1.000
    N75      N        0.32940    0.46300    0.14670    1.000
    C227     C        0.30680    0.42010    0.11370    1.000
    H153     H        0.31120    0.35780    0.11070    1.000
    C228     C        0.27820    0.45870    0.08430    1.000
    H154     H        0.26280    0.42470    0.06100    1.000
    C229     C        0.27100    0.55280    0.08840    1.000
    C230     C        0.29510    0.59690    0.12080    1.000
    H155     H        0.29280    0.66000    0.12330    1.000
    C231     C        0.32370    0.55100    0.15090    1.000
    H156     H        0.33940    0.58280    0.17480    1.000
    C232     C        0.18790    0.58980    0.99850    1.000
    N76      N        0.18050    0.67550    0.00000    1.000
    C233     C        0.20270    0.72220    0.03120    1.000
    N77      N        0.23320    0.68270    0.06120    1.000
    C234     C        0.23660    0.60150    0.05770    1.000
    N78      N        0.21810    0.54500    0.02620    1.000
    N79      N        0.14190    0.15150    0.07100    1.000
    C235     C        0.14940    0.22210    0.10380    1.000
    H157     H        0.17270    0.25710    0.10590    1.000
    C236     C        0.12440    0.24010    0.13180    1.000
    H158     H        0.12910    0.29020    0.15120    1.000
    C237     C        0.09250    0.18700    0.13220    1.000
    C238     C        0.08650    0.11420    0.10270    1.000
    H159     H        0.06580    0.07270    0.10340    1.000
    C239     C        0.11060    0.10430    0.07310    1.000
    H160     H        0.10410    0.05800    0.05160    1.000
    N80      N        0.92000    0.98260    0.19770    1.000
    C240     C        0.93450    0.99730    0.16280    1.000
    H161     H        0.92170    0.97060    0.13570    1.000
    C241     C        0.96680    0.04820    0.16190    1.000
    H162     H        0.97860    0.04780    0.13630    1.000
    C242     C        0.98240    0.10030    0.19780    1.000
    C243     C        0.96370    0.09080    0.23340    1.000
    H163     H        0.97270    0.12460    0.25970    1.000
    C244     C        0.93200    0.03270    0.23170    1.000
    H164     H        0.91890    0.03020    0.25620    1.000
    N81      N        0.06480    0.52500    0.29670    1.000
    C245     C        0.08910    0.49950    0.27060    1.000
    H165     H        0.11190    0.53540    0.27100    1.000
    C246     C        0.08500    0.43220    0.24530    1.000
    H166     H        0.10230    0.42260    0.22520    1.000
    C247     C        0.05350    0.36980    0.24740    1.000
    C248     C        0.02720    0.38810    0.27470    1.000
    H167     H        0.00630    0.34850    0.27750    1.000
    C249     C        0.03320    0.46810    0.29780    1.000
    H168     H        0.01470    0.48520    0.31540    1.000
    C250     C        0.06810    0.20130    0.16440    1.000
    N82      N        0.03770    0.14160    0.16710    1.000
    C251     C        0.01620    0.16200    0.19700    1.000
    N83      N        0.01980    0.22490    0.22530    1.000
    C252     C        0.04940    0.28320    0.21810    1.000
    N84      N        0.07280    0.27430    0.19100    1.000
    N85      N        0.11920    0.55760    0.38960    1.000
    C253     C        0.11280    0.47050    0.39270    1.000
    H169     H        0.09530    0.43900    0.37010    1.000
    C254     C        0.13440    0.42490    0.43310    1.000
    H170     H        0.12680    0.36630    0.44010    1.000
    C255     C        0.16600    0.46720    0.46120    1.000
    C256     C        0.16950    0.55320    0.45450    1.000
    H171     H        0.18760    0.58720    0.47540    1.000
    C257     C        0.14690    0.59680    0.41680    1.000
    H172     H        0.15260    0.65760    0.41150    1.000
    N86      N        0.18550    0.00250    0.52680    1.000
    C258     C        0.15960    0.05630    0.50300    1.000
    H173     H        0.13660    0.03160    0.48490    1.000
    C259     C        0.16510    0.14970    0.50360    1.000
    H174     H        0.14660    0.18770    0.48540    1.000
    C260     C        0.19680    0.18420    0.53040    1.000
    C261     C        0.22190    0.12600    0.55800    1.000
    H175     H        0.24370    0.14700    0.57930    1.000
    C262     C        0.21290    0.03280    0.55250    1.000
    H176     H        0.22990    0.99180    0.57060    1.000
    N87      N        0.32980    0.53600    0.64610    1.000
    C263     C        0.32160    0.45170    0.65070    1.000
    H177     H        0.33730    0.42000    0.67460    1.000
    C264     C        0.29220    0.40520    0.62370    1.000
    H178     H        0.28730    0.34410    0.62940    1.000
    C265     C        0.26950    0.45010    0.58770    1.000
    C266     C        0.27740    0.53860    0.58110    1.000
    H179     H        0.26240    0.57050    0.55670    1.000
    C267     C        0.30710    0.58040    0.60990    1.000
    H180     H        0.31240    0.64170    0.60510    1.000
    C268     C        0.18880    0.41480    0.49540    1.000
    N88      N        0.17790    0.32920    0.49950    1.000
    C269     C        0.20410    0.28350    0.53180    1.000
    N89      N        0.23260    0.31540    0.56210    1.000
    C270     C        0.24000    0.40740    0.55530    1.000
    N90      N        0.21700    0.45400    0.52200    1.000
    N91      N        0.41810    0.52010    0.69440    1.000
    C271     C        0.43430    0.47210    0.73240    1.000
    H181     H        0.42320    0.47880    0.75830    1.000
    C272     C        0.46610    0.41450    0.73380    1.000
    H182     H        0.47610    0.37980    0.75950    1.000
    C273     C        0.48250    0.41000    0.69580    1.000
    C274     C        0.46680    0.45600    0.65600    1.000
    H183     H        0.47580    0.44700    0.62900    1.000
    C275     C        0.43630    0.51700    0.66030    1.000
    H184     H        0.42830    0.55850    0.63680    1.000
    N92      N        0.64030    0.34040    0.57040    1.000
    C276     C        0.60560    0.38610    0.56650    1.000
    H185     H        0.59850    0.42750    0.54270    1.000
    C277     C        0.58030    0.37430    0.59610    1.000
    H186     H        0.55590    0.40510    0.59190    1.000
    C278     C        0.59140    0.31660    0.63180    1.000
    C279     C        0.62780    0.27300    0.63530    1.000
    H187     H        0.63670    0.23140    0.65860    1.000
    C280     C        0.65100    0.29330    0.60260    1.000
    H188     H        0.67670    0.26790    0.60640    1.000
    N93      N        0.56250    0.98360    0.79800    1.000
    C281     C        0.53460    0.03740    0.79960    1.000
    H189     H        0.51780    0.02640    0.82020    1.000
    C282     C        0.52780    0.11160    0.77250    1.000
    H190     H        0.50520    0.14760    0.77280    1.000
    C283     C        0.55380    0.13500    0.74420    1.000
    C284     C        0.58160    0.07850    0.74080    1.000
    H191     H        0.59880    0.09020    0.72080    1.000
    C285     C        0.58660    0.99510    0.76810    1.000
    H192     H        0.60590    0.95170    0.76480    1.000
    C286     C        0.51570    0.34680    0.69480    1.000
    N94      N        0.53800    0.35970    0.66440    1.000
    C287     C        0.56480    0.30230    0.66370    1.000
    N95      N        0.57330    0.22640    0.68890    1.000
    C288     C        0.54890    0.21550    0.71860    1.000
    N96      N        0.52100    0.27240    0.72350    1.000
    Zn34     Zn       0.08520    0.38000    0.83800    1.000
    Zn35     Zn       0.19240    0.14700    0.03640    1.000
    Zn36     Zn       0.18540    0.85780    0.53370    1.000
    I67      I        0.13180    0.27750    0.80700    1.000
    I68      I        0.03100    0.33600    0.85780    1.000
    I69      I        0.25600    0.20990    0.08180    1.000
    I70      I        0.15940    0.19240    0.96720    1.000
    I71      I        0.14310    0.82790    0.45710    1.000
    I72      I        0.24760    0.78590    0.56550    1.000
