# CIF file generated by openbabel 3.1.0, see https://openbabel.org
data_I
_chemical_name_common 'image0'
_cell_length_a 9.366
_cell_length_b 9.366
_cell_length_c 6.947
_cell_angle_alpha 90
_cell_angle_beta 90
_cell_angle_gamma 90
_space_group_name_H-M_alt 'P 1'
_space_group_name_Hall 'P 1'
loop_
    _symmetry_equiv_pos_as_xyz
    x,y,z
loop_
    _atom_site_label
    _atom_site_type_symbol
    _atom_site_fract_x
    _atom_site_fract_y
    _atom_site_fract_z
    _atom_site_occupancy
    Ca1      Ca       0.25000    0.25000    0.90710    1.000
    N1       N        0.25000    0.25000    0.24200    1.000
    N2       N        0.25000    0.25000    0.40420    1.000
    N3       N        0.25000    0.25000    0.56990    1.000
    Ca2      Ca       0.75000    0.75000    0.09290    1.000
    N4       N        0.75000    0.75000    0.75800    1.000
    N5       N        0.75000    0.75000    0.59580    1.000
    N6       N        0.75000    0.75000    0.43010    1.000
    N7       N        0.07210    0.07210    0.91090    1.000
    N8       N        0.42790    0.42790    0.91090    1.000
    N9       N        0.42790    0.07210    0.91090    1.000
    N10      N        0.07210    0.42790    0.91090    1.000
    N11      N        0.92790    0.57210    0.08910    1.000
    N12      N        0.57210    0.92790    0.08910    1.000
    N13      N        0.57210    0.57210    0.08910    1.000
    N14      N        0.92790    0.92790    0.08910    1.000
    N15      N        0.00000    0.00000    0.00000    1.000
    N16      N        0.50000    0.50000    0.00000    1.000
    N17      N        0.50000    0.00000    0.00000    1.000
    N18      N        0.00000    0.50000    0.00000    1.000
