# CIF file generated by openbabel 3.1.0, see https://openbabel.org
data_I
_chemical_name_common 'LUFNAC_clean'
_cell_length_a 11.8326
_cell_length_b 11.8326
_cell_length_c 16.444
_cell_angle_alpha 73.1583
_cell_angle_beta 73.1583
_cell_angle_gamma 78.8684
_space_group_name_H-M_alt 'P 1'
_space_group_name_Hall 'P 1'
loop_
    _symmetry_equiv_pos_as_xyz
    x,y,z
loop_
    _atom_site_label
    _atom_site_type_symbol
    _atom_site_fract_x
    _atom_site_fract_y
    _atom_site_fract_z
    _atom_site_occupancy
    Mn1      Mn       0.83611    0.61985    0.04414    1.000
    Mn2      Mn       0.38015    0.16389    0.45586    1.000
    Mn3      Mn       0.16389    0.38015    0.95586    1.000
    Mn4      Mn       0.61985    0.83611    0.54414    1.000
    H1       H        0.66450    0.81350    0.27310    1.000
    H2       H        0.45190    0.16650    0.03820    1.000
    H3       H        0.57230    0.98130    0.04780    1.000
    H4       H        0.37420    0.26780    0.17250    1.000
    H5       H        0.36170    0.32990    0.07700    1.000
    H6       H        0.48460    0.14000    0.24720    1.000
    H7       H        0.63900    0.28860    0.00980    1.000
    H8       H        0.42180    0.46320    0.17730    1.000
    H9       H        0.77460    0.41600    0.98420    1.000
    H10      H        0.56490    0.58330    0.14920    1.000
    H11      H        0.18650    0.33550    0.22690    1.000
    H12      H        0.83350    0.54810    0.46180    1.000
    H13      H        0.01870    0.42770    0.45220    1.000
    H14      H        0.73220    0.62580    0.32750    1.000
    H15      H        0.67010    0.63830    0.42300    1.000
    H16      H        0.86000    0.51540    0.25280    1.000
    H17      H        0.71140    0.36100    0.49020    1.000
    H18      H        0.53680    0.57820    0.32270    1.000
    H19      H        0.58400    0.22540    0.51580    1.000
    H20      H        0.41670    0.43510    0.35080    1.000
    H21      H        0.33550    0.18650    0.72690    1.000
    H22      H        0.54810    0.83350    0.96180    1.000
    H23      H        0.42770    0.01870    0.95220    1.000
    H24      H        0.62580    0.73220    0.82750    1.000
    H25      H        0.63830    0.67010    0.92300    1.000
    H26      H        0.51540    0.86000    0.75280    1.000
    H27      H        0.36100    0.71140    0.99020    1.000
    H28      H        0.57820    0.53680    0.82270    1.000
    H29      H        0.22540    0.58400    0.01580    1.000
    H30      H        0.43510    0.41670    0.85080    1.000
    H31      H        0.81350    0.66450    0.77310    1.000
    H32      H        0.16650    0.45190    0.53820    1.000
    H33      H        0.98130    0.57230    0.54780    1.000
    H34      H        0.26780    0.37420    0.67250    1.000
    H35      H        0.32990    0.36170    0.57700    1.000
    H36      H        0.14000    0.48460    0.74720    1.000
    H37      H        0.28860    0.63900    0.50980    1.000
    H38      H        0.46320    0.42180    0.67730    1.000
    H39      H        0.41600    0.77460    0.48420    1.000
    H40      H        0.58330    0.56490    0.64920    1.000
    C1       C        0.57070    0.97370    0.27460    1.000
    C2       C        0.51570    0.07770    0.13820    1.000
    C3       C        0.62880    0.88260    0.15340    1.000
    C4       C        0.62720    0.87940    0.23960    1.000
    C5       C        0.56970    0.97270    0.36670    1.000
    C6       C        0.69350    0.78270    0.11460    1.000
    C7       C        0.51300    0.35980    0.09830    1.000
    C8       C        0.57240    0.98040    0.10450    1.000
    C9       C        0.41740    0.28460    0.11120    1.000
    C10      C        0.51820    0.07460    0.22420    1.000
    C11      C        0.62120    0.34760    0.04010    1.000
    C12      C        0.49450    0.44950    0.13830    1.000
    C13      C        0.70380    0.42340    0.02660    1.000
    C14      C        0.58260    0.52120    0.12190    1.000
    C15      C        0.02630    0.42930    0.22540    1.000
    C16      C        0.92230    0.48430    0.36180    1.000
    C17      C        0.11740    0.37120    0.34660    1.000
    C18      C        0.12060    0.37280    0.26040    1.000
    C19      C        0.02730    0.43030    0.13330    1.000
    C20      C        0.21730    0.30650    0.38540    1.000
    C21      C        0.64020    0.48700    0.40170    1.000
    C22      C        0.01960    0.42760    0.39550    1.000
    C23      C        0.71540    0.58260    0.38880    1.000
    C24      C        0.92540    0.48180    0.27580    1.000
    C25      C        0.65240    0.37880    0.45990    1.000
    C26      C        0.55050    0.50550    0.36170    1.000
    C27      C        0.57660    0.29620    0.47340    1.000
    C28      C        0.47880    0.41740    0.37810    1.000
    C29      C        0.42930    0.02630    0.72540    1.000
    C30      C        0.48430    0.92230    0.86180    1.000
    C31      C        0.37120    0.11740    0.84660    1.000
    C32      C        0.37280    0.12060    0.76040    1.000
    C33      C        0.43030    0.02730    0.63330    1.000
    C34      C        0.30650    0.21730    0.88540    1.000
    C35      C        0.48700    0.64020    0.90170    1.000
    C36      C        0.42760    0.01960    0.89550    1.000
    C37      C        0.58260    0.71540    0.88880    1.000
    C38      C        0.48180    0.92540    0.77580    1.000
    C39      C        0.37880    0.65240    0.95990    1.000
    C40      C        0.50550    0.55050    0.86170    1.000
    C41      C        0.29620    0.57660    0.97340    1.000
    C42      C        0.41740    0.47880    0.87810    1.000
    C43      C        0.97370    0.57070    0.77460    1.000
    C44      C        0.07770    0.51570    0.63820    1.000
    C45      C        0.88260    0.62880    0.65340    1.000
    C46      C        0.87940    0.62720    0.73960    1.000
    C47      C        0.97270    0.56970    0.86670    1.000
    C48      C        0.78270    0.69350    0.61460    1.000
    C49      C        0.35980    0.51300    0.59830    1.000
    C50      C        0.98040    0.57240    0.60450    1.000
    C51      C        0.28460    0.41740    0.61120    1.000
    C52      C        0.07460    0.51820    0.72420    1.000
    C53      C        0.34760    0.62120    0.54010    1.000
    C54      C        0.44950    0.49450    0.63830    1.000
    C55      C        0.42340    0.70380    0.52660    1.000
    C56      C        0.52120    0.58260    0.62190    1.000
    N1       N        0.68870    0.50690    0.07050    1.000
    N2       N        0.46070    0.17330    0.08660    1.000
    N3       N        0.49310    0.31130    0.42950    1.000
    N4       N        0.82670    0.53930    0.41340    1.000
    N5       N        0.31130    0.49310    0.92950    1.000
    N6       N        0.53930    0.82670    0.91340    1.000
    N7       N        0.50690    0.68870    0.57050    1.000
    N8       N        0.17330    0.46070    0.58660    1.000
    O1       O        0.74430    0.69290    0.16070    1.000
    O2       O        0.69950    0.78810    0.03510    1.000
    O3       O        0.61570    0.87770    0.41090    1.000
    O4       O        0.52910    0.06470    0.39290    1.000
    O5       O        0.30710    0.25570    0.33930    1.000
    O6       O        0.21190    0.30050    0.46490    1.000
    O7       O        0.12230    0.38430    0.08910    1.000
    O8       O        0.93530    0.47090    0.10710    1.000
    O9       O        0.25570    0.30710    0.83930    1.000
    O10      O        0.30050    0.21190    0.96490    1.000
    O11      O        0.38430    0.12230    0.58910    1.000
    O12      O        0.47090    0.93530    0.60710    1.000
    O13      O        0.69290    0.74430    0.66070    1.000
    O14      O        0.78810    0.69950    0.53510    1.000
    O15      O        0.87770    0.61570    0.91090    1.000
    O16      O        0.06470    0.52910    0.89290    1.000
