# CIF file generated by openbabel 3.1.0, see https://openbabel.org
data_I
_chemical_name_common 'ZARZAV_clean'
_cell_length_a 11.7527
_cell_length_b 12.4829
_cell_length_c 16.6089
_cell_angle_alpha 90
_cell_angle_beta 90.477
_cell_angle_gamma 90
_space_group_name_H-M_alt 'P 1'
_space_group_name_Hall 'P 1'
loop_
    _symmetry_equiv_pos_as_xyz
    x,y,z
loop_
    _atom_site_label
    _atom_site_type_symbol
    _atom_site_fract_x
    _atom_site_fract_y
    _atom_site_fract_z
    _atom_site_occupancy
    Zn1      Zn       0.64865    0.75197    0.74947    1.000
    Zn2      Zn       0.35135    0.24803    0.25053    1.000
    H1       H        0.73570    0.73940    0.57730    1.000
    H2       H        0.81950    0.92390    0.75700    1.000
    H3       H        0.87860    0.80730    0.50070    1.000
    H4       H        0.95920    0.00280    0.68370    1.000
    H5       H        0.07710    0.00510    0.56640    1.000
    H6       H        0.07070    0.90780    0.50660    1.000
    H7       H        0.07500    0.48480    0.93390    1.000
    H8       H        0.07840    0.58610    0.99000    1.000
    H9       H        0.96350    0.50010    0.81210    1.000
    H10      H        0.88680    0.69200    0.99680    1.000
    H11      H        0.82330    0.58310    0.73820    1.000
    H12      H        0.74610    0.76690    0.91880    1.000
    H13      H        0.26430    0.26060    0.42270    1.000
    H14      H        0.18050    0.07610    0.24300    1.000
    H15      H        0.12140    0.19270    0.49930    1.000
    H16      H        0.04080    0.99720    0.31630    1.000
    H17      H        0.92290    0.99490    0.43360    1.000
    H18      H        0.92930    0.09220    0.49340    1.000
    H19      H        0.92500    0.51520    0.06610    1.000
    H20      H        0.92160    0.41390    0.01000    1.000
    H21      H        0.03650    0.49990    0.18790    1.000
    H22      H        0.11320    0.30800    0.00320    1.000
    H23      H        0.17670    0.41690    0.26180    1.000
    H24      H        0.25390    0.23310    0.08120    1.000
    C1       C        0.53330    0.66090    0.62750    1.000
    C2       C        0.51470    0.57510    0.56390    1.000
    C3       C        0.41290    0.56490    0.52230    1.000
    C4       C        0.39830    0.49220    0.46050    1.000
    C5       C        0.52440    0.97580    0.07810    1.000
    C6       C        0.54180    0.90120    0.01880    1.000
    C7       C        0.51760    0.92310    0.93800    1.000
    C8       C        0.53710    0.83970    0.87280    1.000
    C9       C        0.78260    0.79200    0.59940    1.000
    C10      C        0.83100    0.90100    0.70450    1.000
    C11      C        0.86750    0.83320    0.55260    1.000
    C12      C        0.91580    0.94810    0.66110    1.000
    C13      C        0.93650    0.91340    0.58270    1.000
    C14      C        0.02630    0.96350    0.53230    1.000
    C15      C        0.02880    0.53230    0.96640    1.000
    C16      C        0.94100    0.58570    0.91400    1.000
    C17      C        0.92040    0.55430    0.83520    1.000
    C18      C        0.87460    0.66740    0.94460    1.000
    C19      C        0.83500    0.60410    0.79130    1.000
    C20      C        0.79010    0.71230    0.89710    1.000
    C21      C        0.46670    0.33910    0.37250    1.000
    C22      C        0.48530    0.42490    0.43610    1.000
    C23      C        0.58710    0.43510    0.47770    1.000
    C24      C        0.60170    0.50780    0.53950    1.000
    C25      C        0.47560    0.02420    0.92190    1.000
    C26      C        0.45820    0.09880    0.98120    1.000
    C27      C        0.48240    0.07690    0.06200    1.000
    C28      C        0.46290    0.16030    0.12720    1.000
    C29      C        0.21740    0.20800    0.40060    1.000
    C30      C        0.16900    0.09900    0.29550    1.000
    C31      C        0.13250    0.16680    0.44740    1.000
    C32      C        0.08420    0.05190    0.33890    1.000
    C33      C        0.06350    0.08660    0.41730    1.000
    C34      C        0.97370    0.03650    0.46770    1.000
    C35      C        0.97120    0.46770    0.03360    1.000
    C36      C        0.05900    0.41430    0.08600    1.000
    C37      C        0.07960    0.44570    0.16480    1.000
    C38      C        0.12540    0.33260    0.05540    1.000
    C39      C        0.16500    0.39590    0.20870    1.000
    C40      C        0.20990    0.28770    0.10290    1.000
    N1       N        0.76360    0.82350    0.67510    1.000
    N2       N        0.76850    0.68090    0.82120    1.000
    N3       N        0.23640    0.17650    0.32490    1.000
    N4       N        0.23150    0.31910    0.17880    1.000
    O1       O        0.58740    0.62930    0.69070    1.000
    O2       O        0.50120    0.75300    0.61460    1.000
    O3       O        0.59320    0.87280    0.81247    1.000
    O4       O        0.50430    0.74750    0.88302    1.000
    O5       O        0.41260    0.37070    0.30930    1.000
    O6       O        0.49880    0.24700    0.38540    1.000
    O7       O        0.40680    0.12720    0.18753    1.000
    O8       O        0.49570    0.25250    0.11698    1.000
    F1       F        0.32220    0.62270    0.54464    1.000
    F2       F        0.29450    0.48640    0.42558    1.000
    F3       F        0.55140    0.94760    0.15429    1.000
    F4       F        0.58660    0.80610    0.03900    1.000
    F5       F        0.67780    0.37730    0.45536    1.000
    F6       F        0.70550    0.51360    0.57442    1.000
    F7       F        0.44860    0.05240    0.84571    1.000
    F8       F        0.41340    0.19390    0.96100    1.000
    Zn3      Zn       0.85135    0.25197    0.75053    1.000
    Zn4      Zn       0.14865    0.74803    0.24947    1.000
    H25      H        0.76430    0.23940    0.92270    1.000
    H26      H        0.68050    0.42390    0.74300    1.000
    H27      H        0.62140    0.30730    0.99930    1.000
    H28      H        0.54080    0.50280    0.81630    1.000
    H29      H        0.42290    0.50510    0.93360    1.000
    H30      H        0.42930    0.40780    0.99340    1.000
    H31      H        0.42500    0.98480    0.56610    1.000
    H32      H        0.42160    0.08610    0.51000    1.000
    H33      H        0.53650    0.00010    0.68790    1.000
    H34      H        0.61320    0.19200    0.50320    1.000
    H35      H        0.67670    0.08310    0.76180    1.000
    H36      H        0.75390    0.26690    0.58120    1.000
    H37      H        0.23570    0.76060    0.07730    1.000
    H38      H        0.31950    0.57610    0.25700    1.000
    H39      H        0.37860    0.69270    0.00070    1.000
    H40      H        0.45920    0.49720    0.18370    1.000
    H41      H        0.57710    0.49490    0.06640    1.000
    H42      H        0.57070    0.59220    0.00660    1.000
    H43      H        0.57500    0.01520    0.43390    1.000
    H44      H        0.57840    0.91390    0.49000    1.000
    H45      H        0.46350    0.99990    0.31210    1.000
    H46      H        0.38680    0.80800    0.49680    1.000
    H47      H        0.32330    0.91690    0.23820    1.000
    H48      H        0.24610    0.73310    0.41880    1.000
    C41      C        0.96670    0.16090    0.87250    1.000
    C42      C        0.98530    0.07510    0.93610    1.000
    C43      C        0.08710    0.06490    0.97770    1.000
    C44      C        0.10170    0.99220    0.03950    1.000
    C45      C        0.97560    0.47580    0.42190    1.000
    C46      C        0.95820    0.40120    0.48120    1.000
    C47      C        0.98240    0.42310    0.56200    1.000
    C48      C        0.96290    0.33970    0.62720    1.000
    C49      C        0.71740    0.29200    0.90060    1.000
    C50      C        0.66900    0.40100    0.79550    1.000
    C51      C        0.63250    0.33320    0.94740    1.000
    C52      C        0.58420    0.44810    0.83890    1.000
    C53      C        0.56350    0.41340    0.91730    1.000
    C54      C        0.47370    0.46350    0.96770    1.000
    C55      C        0.47120    0.03230    0.53360    1.000
    C56      C        0.55900    0.08570    0.58600    1.000
    C57      C        0.57960    0.05430    0.66480    1.000
    C58      C        0.62540    0.16740    0.55540    1.000
    C59      C        0.66500    0.10410    0.70870    1.000
    C60      C        0.70990    0.21230    0.60290    1.000
    C61      C        0.03330    0.83910    0.12750    1.000
    C62      C        0.01470    0.92490    0.06390    1.000
    C63      C        0.91290    0.93510    0.02230    1.000
    C64      C        0.89830    0.00780    0.96050    1.000
    C65      C        0.02440    0.52420    0.57810    1.000
    C66      C        0.04180    0.59880    0.51880    1.000
    C67      C        0.01760    0.57690    0.43800    1.000
    C68      C        0.03710    0.66030    0.37280    1.000
    C69      C        0.28260    0.70800    0.09940    1.000
    C70      C        0.33100    0.59900    0.20450    1.000
    C71      C        0.36750    0.66680    0.05260    1.000
    C72      C        0.41580    0.55190    0.16110    1.000
    C73      C        0.43650    0.58660    0.08270    1.000
    C74      C        0.52630    0.53650    0.03230    1.000
    C75      C        0.52880    0.96770    0.46640    1.000
    C76      C        0.44100    0.91430    0.41400    1.000
    C77      C        0.42040    0.94570    0.33520    1.000
    C78      C        0.37460    0.83260    0.44460    1.000
    C79      C        0.33500    0.89590    0.29130    1.000
    C80      C        0.29010    0.78770    0.39710    1.000
    N5       N        0.73640    0.32350    0.82490    1.000
    N6       N        0.73150    0.18090    0.67880    1.000
    N7       N        0.26360    0.67650    0.17510    1.000
    N8       N        0.26850    0.81910    0.32120    1.000
    O9       O        0.91260    0.12930    0.80930    1.000
    O10      O        0.99880    0.25300    0.88540    1.000
    O11      O        0.90680    0.37280    0.68753    1.000
    O12      O        0.99570    0.24750    0.61698    1.000
    O13      O        0.08740    0.87070    0.19070    1.000
    O14      O        0.00120    0.74700    0.11460    1.000
    O15      O        0.09320    0.62720    0.31247    1.000
    O16      O        0.00430    0.75250    0.38302    1.000
    F9       F        0.17780    0.12270    0.95536    1.000
    F10      F        0.20550    0.98640    0.07442    1.000
    F11      F        0.94860    0.44760    0.34571    1.000
    F12      F        0.91340    0.30610    0.46100    1.000
    F13      F        0.82220    0.87730    0.04464    1.000
    F14      F        0.79450    0.01360    0.92558    1.000
    F15      F        0.05140    0.55240    0.65429    1.000
    F16      F        0.08660    0.69390    0.53900    1.000
