# CIF file generated by openbabel 3.1.0, see https://openbabel.org
data_I
_chemical_name_common 'image0'
_cell_length_a 15.2159
_cell_length_b 9.0611
_cell_length_c 7.7533
_cell_angle_alpha 90
_cell_angle_beta 90
_cell_angle_gamma 90
_space_group_name_H-M_alt 'P 1'
_space_group_name_Hall 'P 1'
loop_
    _symmetry_equiv_pos_as_xyz
    x,y,z
loop_
    _atom_site_label
    _atom_site_type_symbol
    _atom_site_fract_x
    _atom_site_fract_y
    _atom_site_fract_z
    _atom_site_occupancy
    C1       C        0.54317    0.53995    0.48051    1.000
    C2       C        0.61804    0.47073    0.41723    1.000
    H1       H        0.61453    0.37281    0.37398    1.000
    C3       C        0.69805    0.54477    0.41723    1.000
    H2       H        0.74922    0.49746    0.37398    1.000
    C4       C        0.70318    0.68804    0.48051    1.000
    C5       C        0.62831    0.75726    0.54380    1.000
    H3       H        0.63182    0.85518    0.58705    1.000
    C6       C        0.54830    0.68322    0.54380    1.000
    H4       H        0.49713    0.73053    0.58705    1.000
    C7       C        0.78915    0.76760    0.48051    1.000
    C8       C        0.81961    0.85756    0.60757    1.000
    C9       C        0.77286    0.89422    0.77201    1.000
    H5       H        0.81474    0.91471    0.85967    1.000
    H6       H        0.73665    0.97835    0.75477    1.000
    H7       H        0.73748    0.81290    0.80606    1.000
    N1       N        0.90000    0.90836    0.55904    1.000
    N2       N        0.91922    0.84981    0.40199    1.000
    C10      C        0.85071    0.76282    0.35346    1.000
    C11      C        0.84420    0.67686    0.18902    1.000
    H8       H        0.78131    0.61704    0.18569    1.000
    H9       H        0.84774    0.75285    0.07860    1.000
    H10      H        0.89875    0.59744    0.18179    1.000
    C12      C        0.45683    0.46005    0.48051    1.000
    C13      C        0.38196    0.52927    0.41723    1.000
    H11      H        0.38547    0.62719    0.37398    1.000
    C14      C        0.30195    0.45523    0.41723    1.000
    H12      H        0.25078    0.50254    0.37398    1.000
    C15      C        0.29682    0.31196    0.48051    1.000
    C16      C        0.37169    0.24274    0.54380    1.000
    H13      H        0.36818    0.14482    0.58705    1.000
    C17      C        0.45170    0.31678    0.54380    1.000
    H14      H        0.50287    0.26947    0.58705    1.000
    C18      C        0.21085    0.23240    0.48051    1.000
    C19      C        0.18039    0.14244    0.60757    1.000
    C20      C        0.22714    0.10578    0.77201    1.000
    H15      H        0.18526    0.08529    0.85967    1.000
    H16      H        0.26335    0.02165    0.75477    1.000
    H17      H        0.26252    0.18710    0.80606    1.000
    N3       N        0.10000    0.09164    0.55904    1.000
    N4       N        0.08078    0.15019    0.40199    1.000
    C21      C        0.14929    0.23718    0.35346    1.000
    C22      C        0.15580    0.32314    0.18902    1.000
    H18      H        0.21869    0.38296    0.18569    1.000
    H19      H        0.15226    0.24715    0.07860    1.000
    H20      H        0.10125    0.40256    0.18179    1.000
    C23      C        0.54317    0.46005    0.98051    1.000
    C24      C        0.61804    0.52927    0.91723    1.000
    H21      H        0.61453    0.62719    0.87398    1.000
    C25      C        0.69805    0.45523    0.91723    1.000
    H22      H        0.74922    0.50254    0.87398    1.000
    C26      C        0.70318    0.31196    0.98051    1.000
    C27      C        0.62831    0.24274    0.04380    1.000
    H23      H        0.63182    0.14482    0.08705    1.000
    C28      C        0.54830    0.31678    0.04380    1.000
    H24      H        0.49713    0.26947    0.08705    1.000
    C29      C        0.78915    0.23240    0.98051    1.000
    C30      C        0.81961    0.14244    0.10757    1.000
    C31      C        0.77286    0.10578    0.27201    1.000
    H25      H        0.81474    0.08529    0.35967    1.000
    H26      H        0.73665    0.02165    0.25477    1.000
    H27      H        0.73748    0.18710    0.30606    1.000
    N5       N        0.90000    0.09164    0.05904    1.000
    N6       N        0.91922    0.15019    0.90199    1.000
    C32      C        0.85071    0.23718    0.85346    1.000
    C33      C        0.84420    0.32314    0.68902    1.000
    H28      H        0.78131    0.38296    0.68569    1.000
    H29      H        0.84774    0.24715    0.57860    1.000
    H30      H        0.89875    0.40256    0.68179    1.000
    C34      C        0.45683    0.53995    0.98051    1.000
    C35      C        0.38196    0.47073    0.91723    1.000
    H31      H        0.38547    0.37281    0.87398    1.000
    C36      C        0.30195    0.54477    0.91723    1.000
    H32      H        0.25078    0.49746    0.87398    1.000
    C37      C        0.29682    0.68804    0.98051    1.000
    C38      C        0.37169    0.75726    0.04380    1.000
    H33      H        0.36818    0.85518    0.08705    1.000
    C39      C        0.45170    0.68322    0.04380    1.000
    H34      H        0.50287    0.73053    0.08705    1.000
    C40      C        0.21085    0.76760    0.98051    1.000
    C41      C        0.18039    0.85756    0.10757    1.000
    C42      C        0.22714    0.89422    0.27201    1.000
    H35      H        0.18526    0.91471    0.35967    1.000
    H36      H        0.26335    0.97835    0.25477    1.000
    H37      H        0.26252    0.81290    0.30606    1.000
    N7       N        0.10000    0.90836    0.05904    1.000
    N8       N        0.08078    0.84981    0.90199    1.000
    C43      C        0.14929    0.76282    0.85346    1.000
    C44      C        0.15580    0.67686    0.68902    1.000
    H38      H        0.21869    0.61704    0.68569    1.000
    H39      H        0.15226    0.75285    0.57860    1.000
    H40      H        0.10125    0.59744    0.68179    1.000
    Cd1      Cd       0.00000    0.00000    0.25000    1.000
    Cd2      Cd       0.00000    0.00000    0.75000    1.000
