# CIF file generated by openbabel 3.1.0, see https://openbabel.org
data_I
_chemical_name_common 'image0'
_cell_length_a 22.0366
_cell_length_b 16.4532
_cell_length_c 25.6805
_cell_angle_alpha 90
_cell_angle_beta 115.397
_cell_angle_gamma 90
_space_group_name_H-M_alt 'P 1'
_space_group_name_Hall 'P 1'
loop_
    _symmetry_equiv_pos_as_xyz
    x,y,z
loop_
    _atom_site_label
    _atom_site_type_symbol
    _atom_site_fract_x
    _atom_site_fract_y
    _atom_site_fract_z
    _atom_site_occupancy
    Ag1      Ag       0.27404    0.70856    0.86820    1.000
    Ag2      Ag       0.79465    0.00021    0.36768    1.000
    C1       C        0.62836    0.06210    0.91179    1.000
    H1       H        0.58580    0.04040    0.89060    1.000
    C2       C        0.42295    0.40000    0.39285    1.000
    H2       H        0.40330    0.40430    0.35290    1.000
    C3       C        0.62842    0.00750    0.00282    1.000
    C4       C        0.65412    0.21900    0.50174    1.000
    C5       C        0.48163    0.38690    0.50950    1.000
    H3       H        0.50060    0.38360    0.54950    1.000
    C6       C        0.40311    0.81660    0.88888    1.000
    H4       H        0.38500    0.81080    0.84900    1.000
    C7       C        0.74388    0.13310    0.49673    1.000
    H5       H        0.76470    0.13280    0.53680    1.000
    C8       C        0.72318    0.08640    0.00014    1.000
    H6       H        0.74550    0.08210    0.04000    1.000
    C9       C        0.57523    0.30090    0.50731    1.000
    C10      C        0.66041    0.05250    0.97072    1.000
    C11      C        0.62810    0.97640    0.08825    1.000
    C12      C        0.77212    0.09250    0.46566    1.000
    H7       H        0.81250    0.06520    0.48580    1.000
    C13      C        0.46113    0.86090    0.91585    1.000
    H8       H        0.48180    0.88350    0.89440    1.000
    C14      C        0.78000    0.19830    0.74082    1.000
    H9       H        0.82210    0.17460    0.75990    1.000
    C15      C        0.65853    0.98690    0.15185    1.000
    C16      C        0.69090    0.24270    0.65244    1.000
    C17      C        0.75254    0.12710    0.96965    1.000
    H10      H        0.79510    0.14940    0.98990    1.000
    C18      C        0.55014    0.92260    0.00605    1.000
    C19      C        0.66106    0.10510    0.88467    1.000
    H11      H        0.63870    0.11270    0.84500    1.000
    C20      C        0.71218    0.03860    0.17865    1.000
    H12      H        0.72800    0.06980    0.15690    1.000
    C21      C        0.48236    0.35800    0.41910    1.000
    H13      H        0.50210    0.33510    0.39700    1.000
    C22      C        0.68425    0.17440    0.46749    1.000
    C23      C        0.45688    0.83410    0.00548    1.000
    H14      H        0.47440    0.83790    0.04540    1.000
    C24      C        0.75343    0.20730    0.68173    1.000
    H15      H        0.77750    0.18960    0.66170    1.000
    C25      C        0.68690    0.25690    0.74328    1.000
    H16      H        0.66390    0.27420    0.76430    1.000
    C26      C        0.65630    0.26830    0.68386    1.000
    H17      H        0.61410    0.29230    0.66570    1.000
    C27      C        0.51278    0.35000    0.47833    1.000
    C28      C        0.65893    0.25250    0.58855    1.000
    C29      C        0.74210    0.04380    0.23781    1.000
    H18      H        0.77830    0.07890    0.25530    1.000
    C30      C        0.39894    0.79090    0.97480    1.000
    H19      H        0.37760    0.76690    0.99520    1.000
    C31      C        0.65563    0.17470    0.40809    1.000
    H20      H        0.61630    0.20360    0.38730    1.000
    C32      C        0.63376    0.94490    0.18561    1.000
    H21      H        0.59570    0.91230    0.16890    1.000
    C33      C        0.66740    0.95310    0.24475    1.000
    H22      H        0.65140    0.92390    0.26730    1.000
    C34      C        0.42193    0.42860    0.47980    1.000
    H23      H        0.40170    0.45320    0.50090    1.000
    C35      C        0.48905    0.87220    0.97533    1.000
    C36      C        0.68672    0.13120    0.38001    1.000
    H24      H        0.66650    0.13030    0.33990    1.000
    N1       N        0.37117    0.78101    0.91746    1.000
    N2       N        0.72246    0.13590    0.91219    1.000
    N3       N        0.72127    0.00010    0.27168    1.000
    N4       N        0.57480    0.96111    0.97307    1.000
    N5       N        0.65627    0.01856    0.05975    1.000
    N6       N        0.57485    0.92718    0.06336    1.000
    N7       N        0.74459    0.09010    0.40779    1.000
    N8       N        0.39180    0.43528    0.42208    1.000
    N9       N        0.74691    0.22280    0.77201    1.000
    N10      N        0.59747    0.26002    0.47353    1.000
    N11      N        0.60422    0.29900    0.56492    1.000
    N12      N        0.68724    0.21254    0.55933    1.000
    Ag3      Ag       0.77404    0.20856    0.86820    1.000
    Ag4      Ag       0.29465    0.50021    0.36768    1.000
    C37      C        0.12836    0.56210    0.91179    1.000
    H25      H        0.08580    0.54040    0.89060    1.000
    C38      C        0.92295    0.90000    0.39285    1.000
    H26      H        0.90330    0.90430    0.35290    1.000
    C39      C        0.12842    0.50750    0.00282    1.000
    C40      C        0.15412    0.71900    0.50174    1.000
    C41      C        0.98163    0.88690    0.50950    1.000
    H27      H        0.00060    0.88360    0.54950    1.000
    C42      C        0.90311    0.31660    0.88888    1.000
    H28      H        0.88500    0.31080    0.84900    1.000
    C43      C        0.24388    0.63310    0.49673    1.000
    H29      H        0.26470    0.63280    0.53680    1.000
    C44      C        0.22318    0.58640    0.00014    1.000
    H30      H        0.24550    0.58210    0.04000    1.000
    C45      C        0.07523    0.80090    0.50731    1.000
    C46      C        0.16041    0.55250    0.97072    1.000
    C47      C        0.12810    0.47640    0.08825    1.000
    C48      C        0.27212    0.59250    0.46566    1.000
    H31      H        0.31250    0.56520    0.48580    1.000
    C49      C        0.96113    0.36090    0.91585    1.000
    H32      H        0.98180    0.38350    0.89440    1.000
    C50      C        0.28000    0.69830    0.74082    1.000
    H33      H        0.32210    0.67460    0.75990    1.000
    C51      C        0.15853    0.48690    0.15185    1.000
    C52      C        0.19090    0.74270    0.65244    1.000
    C53      C        0.25254    0.62710    0.96965    1.000
    H34      H        0.29510    0.64940    0.98990    1.000
    C54      C        0.05014    0.42260    0.00605    1.000
    C55      C        0.16106    0.60510    0.88467    1.000
    H35      H        0.13870    0.61270    0.84500    1.000
    C56      C        0.21218    0.53860    0.17865    1.000
    H36      H        0.22800    0.56980    0.15690    1.000
    C57      C        0.98236    0.85800    0.41910    1.000
    H37      H        0.00210    0.83510    0.39700    1.000
    C58      C        0.18425    0.67440    0.46749    1.000
    C59      C        0.95688    0.33410    0.00548    1.000
    H38      H        0.97440    0.33790    0.04540    1.000
    C60      C        0.25343    0.70730    0.68173    1.000
    H39      H        0.27750    0.68960    0.66170    1.000
    C61      C        0.18690    0.75690    0.74328    1.000
    H40      H        0.16390    0.77420    0.76430    1.000
    C62      C        0.15630    0.76830    0.68386    1.000
    H41      H        0.11410    0.79230    0.66570    1.000
    C63      C        0.01278    0.85000    0.47833    1.000
    C64      C        0.15893    0.75250    0.58855    1.000
    C65      C        0.24210    0.54380    0.23781    1.000
    H42      H        0.27830    0.57890    0.25530    1.000
    C66      C        0.89894    0.29090    0.97480    1.000
    H43      H        0.87760    0.26690    0.99520    1.000
    C67      C        0.15563    0.67470    0.40809    1.000
    H44      H        0.11630    0.70360    0.38730    1.000
    C68      C        0.13376    0.44490    0.18561    1.000
    H45      H        0.09570    0.41230    0.16890    1.000
    C69      C        0.16740    0.45310    0.24475    1.000
    H46      H        0.15140    0.42390    0.26730    1.000
    C70      C        0.92193    0.92860    0.47980    1.000
    H47      H        0.90170    0.95320    0.50090    1.000
    C71      C        0.98905    0.37220    0.97533    1.000
    C72      C        0.18672    0.63120    0.38001    1.000
    H48      H        0.16650    0.63030    0.33990    1.000
    N13      N        0.87117    0.28101    0.91746    1.000
    N14      N        0.22246    0.63590    0.91219    1.000
    N15      N        0.22127    0.50010    0.27168    1.000
    N16      N        0.07480    0.46111    0.97307    1.000
    N17      N        0.15627    0.51856    0.05975    1.000
    N18      N        0.07485    0.42718    0.06336    1.000
    N19      N        0.24459    0.59010    0.40779    1.000
    N20      N        0.89180    0.93528    0.42208    1.000
    N21      N        0.24691    0.72280    0.77201    1.000
    N22      N        0.09747    0.76002    0.47353    1.000
    N23      N        0.10422    0.79900    0.56492    1.000
    N24      N        0.18724    0.71254    0.55933    1.000
    Ag5      Ag       0.72596    0.70856    0.63180    1.000
    Ag6      Ag       0.20535    0.00021    0.13232    1.000
    C73      C        0.37164    0.06210    0.58821    1.000
    H49      H        0.41420    0.04040    0.60940    1.000
    C74      C        0.57705    0.40000    0.10715    1.000
    H50      H        0.59670    0.40430    0.14710    1.000
    C75      C        0.37158    0.00750    0.49718    1.000
    C76      C        0.34588    0.21900    0.99826    1.000
    C77      C        0.51837    0.38690    0.99050    1.000
    H51      H        0.49940    0.38360    0.95050    1.000
    C78      C        0.59689    0.81660    0.61112    1.000
    H52      H        0.61500    0.81080    0.65100    1.000
    C79      C        0.25612    0.13310    0.00327    1.000
    H53      H        0.23530    0.13280    0.96320    1.000
    C80      C        0.27682    0.08640    0.49986    1.000
    H54      H        0.25450    0.08210    0.46000    1.000
    C81      C        0.42477    0.30090    0.99269    1.000
    C82      C        0.33959    0.05250    0.52928    1.000
    C83      C        0.37190    0.97640    0.41175    1.000
    C84      C        0.22788    0.09250    0.03434    1.000
    H55      H        0.18750    0.06520    0.01420    1.000
    C85      C        0.53887    0.86090    0.58415    1.000
    H56      H        0.51820    0.88350    0.60560    1.000
    C86      C        0.22000    0.19830    0.75918    1.000
    H57      H        0.17790    0.17460    0.74010    1.000
    C87      C        0.34147    0.98690    0.34815    1.000
    C88      C        0.30910    0.24270    0.84756    1.000
    C89      C        0.24746    0.12710    0.53035    1.000
    H58      H        0.20490    0.14940    0.51010    1.000
    C90      C        0.44986    0.92260    0.49395    1.000
    C91      C        0.33894    0.10510    0.61533    1.000
    H59      H        0.36130    0.11270    0.65500    1.000
    C92      C        0.28782    0.03860    0.32135    1.000
    H60      H        0.27200    0.06980    0.34310    1.000
    C93      C        0.51764    0.35800    0.08090    1.000
    H61      H        0.49790    0.33510    0.10300    1.000
    C94      C        0.31575    0.17440    0.03251    1.000
    C95      C        0.54312    0.83410    0.49452    1.000
    H62      H        0.52560    0.83790    0.45460    1.000
    C96      C        0.24657    0.20730    0.81827    1.000
    H63      H        0.22250    0.18960    0.83830    1.000
    C97      C        0.31310    0.25690    0.75672    1.000
    H64      H        0.33610    0.27420    0.73570    1.000
    C98      C        0.34370    0.26830    0.81614    1.000
    H65      H        0.38590    0.29230    0.83430    1.000
    C99      C        0.48722    0.35000    0.02167    1.000
    C100     C        0.34107    0.25250    0.91145    1.000
    C101     C        0.25790    0.04380    0.26219    1.000
    H66      H        0.22170    0.07890    0.24470    1.000
    C102     C        0.60106    0.79090    0.52520    1.000
    H67      H        0.62240    0.76690    0.50480    1.000
    C103     C        0.34437    0.17470    0.09191    1.000
    H68      H        0.38370    0.20360    0.11270    1.000
    C104     C        0.36624    0.94490    0.31439    1.000
    H69      H        0.40430    0.91230    0.33110    1.000
    C105     C        0.33260    0.95310    0.25525    1.000
    H70      H        0.34860    0.92390    0.23270    1.000
    C106     C        0.57807    0.42860    0.02020    1.000
    H71      H        0.59830    0.45320    0.99910    1.000
    C107     C        0.51095    0.87220    0.52467    1.000
    C108     C        0.31328    0.13120    0.11999    1.000
    H72      H        0.33350    0.13030    0.16010    1.000
    N25      N        0.62883    0.78101    0.58254    1.000
    N26      N        0.27754    0.13590    0.58781    1.000
    N27      N        0.27873    0.00010    0.22832    1.000
    N28      N        0.42520    0.96111    0.52693    1.000
    N29      N        0.34373    0.01856    0.44025    1.000
    N30      N        0.42515    0.92718    0.43664    1.000
    N31      N        0.25541    0.09010    0.09221    1.000
    N32      N        0.60820    0.43528    0.07792    1.000
    N33      N        0.25309    0.22280    0.72799    1.000
    N34      N        0.40253    0.26002    0.02647    1.000
    N35      N        0.39578    0.29900    0.93508    1.000
    N36      N        0.31276    0.21254    0.94067    1.000
    Ag7      Ag       0.22596    0.20856    0.63180    1.000
    Ag8      Ag       0.70535    0.50021    0.13232    1.000
    C109     C        0.87164    0.56210    0.58821    1.000
    H73      H        0.91420    0.54040    0.60940    1.000
    C110     C        0.07705    0.90000    0.10715    1.000
    H74      H        0.09670    0.90430    0.14710    1.000
    C111     C        0.87158    0.50750    0.49718    1.000
    C112     C        0.84588    0.71900    0.99826    1.000
    C113     C        0.01837    0.88690    0.99050    1.000
    H75      H        0.99940    0.88360    0.95050    1.000
    C114     C        0.09689    0.31660    0.61112    1.000
    H76      H        0.11500    0.31080    0.65100    1.000
    C115     C        0.75612    0.63310    0.00327    1.000
    H77      H        0.73530    0.63280    0.96320    1.000
    C116     C        0.77682    0.58640    0.49986    1.000
    H78      H        0.75450    0.58210    0.46000    1.000
    C117     C        0.92477    0.80090    0.99269    1.000
    C118     C        0.83959    0.55250    0.52928    1.000
    C119     C        0.87190    0.47640    0.41175    1.000
    C120     C        0.72788    0.59250    0.03434    1.000
    H79      H        0.68750    0.56520    0.01420    1.000
    C121     C        0.03887    0.36090    0.58415    1.000
    H80      H        0.01820    0.38350    0.60560    1.000
    C122     C        0.72000    0.69830    0.75918    1.000
    H81      H        0.67790    0.67460    0.74010    1.000
    C123     C        0.84147    0.48690    0.34815    1.000
    C124     C        0.80910    0.74270    0.84756    1.000
    C125     C        0.74746    0.62710    0.53035    1.000
    H82      H        0.70490    0.64940    0.51010    1.000
    C126     C        0.94986    0.42260    0.49395    1.000
    C127     C        0.83894    0.60510    0.61533    1.000
    H83      H        0.86130    0.61270    0.65500    1.000
    C128     C        0.78782    0.53860    0.32135    1.000
    H84      H        0.77200    0.56980    0.34310    1.000
    C129     C        0.01764    0.85800    0.08090    1.000
    H85      H        0.99790    0.83510    0.10300    1.000
    C130     C        0.81575    0.67440    0.03251    1.000
    C131     C        0.04312    0.33410    0.49452    1.000
    H86      H        0.02560    0.33790    0.45460    1.000
    C132     C        0.74657    0.70730    0.81827    1.000
    H87      H        0.72250    0.68960    0.83830    1.000
    C133     C        0.81310    0.75690    0.75672    1.000
    H88      H        0.83610    0.77420    0.73570    1.000
    C134     C        0.84370    0.76830    0.81614    1.000
    H89      H        0.88590    0.79230    0.83430    1.000
    C135     C        0.98722    0.85000    0.02167    1.000
    C136     C        0.84107    0.75250    0.91145    1.000
    C137     C        0.75790    0.54380    0.26219    1.000
    H90      H        0.72170    0.57890    0.24470    1.000
    C138     C        0.10106    0.29090    0.52520    1.000
    H91      H        0.12240    0.26690    0.50480    1.000
    C139     C        0.84437    0.67470    0.09191    1.000
    H92      H        0.88370    0.70360    0.11270    1.000
    C140     C        0.86624    0.44490    0.31439    1.000
    H93      H        0.90430    0.41230    0.33110    1.000
    C141     C        0.83260    0.45310    0.25525    1.000
    H94      H        0.84860    0.42390    0.23270    1.000
    C142     C        0.07807    0.92860    0.02020    1.000
    H95      H        0.09830    0.95320    0.99910    1.000
    C143     C        0.01095    0.37220    0.52467    1.000
    C144     C        0.81328    0.63120    0.11999    1.000
    H96      H        0.83350    0.63030    0.16010    1.000
    N37      N        0.12883    0.28101    0.58254    1.000
    N38      N        0.77754    0.63590    0.58781    1.000
    N39      N        0.77873    0.50010    0.22832    1.000
    N40      N        0.92520    0.46111    0.52693    1.000
    N41      N        0.84373    0.51856    0.44025    1.000
    N42      N        0.92515    0.42718    0.43664    1.000
    N43      N        0.75541    0.59010    0.09221    1.000
    N44      N        0.10820    0.93528    0.07792    1.000
    N45      N        0.75309    0.72280    0.72799    1.000
    N46      N        0.90253    0.76002    0.02647    1.000
    N47      N        0.89578    0.79900    0.93508    1.000
    N48      N        0.81276    0.71254    0.94067    1.000
    Ag9      Ag       0.72596    0.29144    0.13180    1.000
    Ag10     Ag       0.20535    0.99979    0.63232    1.000
    C145     C        0.37164    0.93790    0.08821    1.000
    H97      H        0.41420    0.95960    0.10940    1.000
    C146     C        0.57705    0.60000    0.60715    1.000
    H98      H        0.59670    0.59570    0.64710    1.000
    C147     C        0.37158    0.99250    0.99718    1.000
    C148     C        0.34588    0.78100    0.49826    1.000
    C149     C        0.51837    0.61310    0.49050    1.000
    H99      H        0.49940    0.61640    0.45050    1.000
    C150     C        0.59689    0.18340    0.11112    1.000
    H100     H        0.61500    0.18920    0.15100    1.000
    C151     C        0.25612    0.86690    0.50327    1.000
    H101     H        0.23530    0.86720    0.46320    1.000
    C152     C        0.27682    0.91360    0.99986    1.000
    H102     H        0.25450    0.91790    0.96000    1.000
    C153     C        0.42477    0.69910    0.49269    1.000
    C154     C        0.33959    0.94750    0.02928    1.000
    C155     C        0.37190    0.02360    0.91175    1.000
    C156     C        0.22788    0.90750    0.53434    1.000
    H103     H        0.18750    0.93480    0.51420    1.000
    C157     C        0.53887    0.13910    0.08415    1.000
    H104     H        0.51820    0.11650    0.10560    1.000
    C158     C        0.22000    0.80170    0.25918    1.000
    H105     H        0.17790    0.82540    0.24010    1.000
    C159     C        0.34147    0.01310    0.84815    1.000
    C160     C        0.30910    0.75730    0.34756    1.000
    C161     C        0.24746    0.87290    0.03035    1.000
    H106     H        0.20490    0.85060    0.01010    1.000
    C162     C        0.44986    0.07740    0.99395    1.000
    C163     C        0.33894    0.89490    0.11533    1.000
    H107     H        0.36130    0.88730    0.15500    1.000
    C164     C        0.28782    0.96140    0.82135    1.000
    H108     H        0.27200    0.93020    0.84310    1.000
    C165     C        0.51764    0.64200    0.58090    1.000
    H109     H        0.49790    0.66490    0.60300    1.000
    C166     C        0.31575    0.82560    0.53251    1.000
    C167     C        0.54312    0.16590    0.99452    1.000
    H110     H        0.52560    0.16210    0.95460    1.000
    C168     C        0.24657    0.79270    0.31827    1.000
    H111     H        0.22250    0.81040    0.33830    1.000
    C169     C        0.31310    0.74310    0.25672    1.000
    H112     H        0.33610    0.72580    0.23570    1.000
    C170     C        0.34370    0.73170    0.31614    1.000
    H113     H        0.38590    0.70770    0.33430    1.000
    C171     C        0.48722    0.65000    0.52167    1.000
    C172     C        0.34107    0.74750    0.41145    1.000
    C173     C        0.25790    0.95620    0.76219    1.000
    H114     H        0.22170    0.92110    0.74470    1.000
    C174     C        0.60106    0.20910    0.02520    1.000
    H115     H        0.62240    0.23310    0.00480    1.000
    C175     C        0.34437    0.82530    0.59191    1.000
    H116     H        0.38370    0.79640    0.61270    1.000
    C176     C        0.36624    0.05510    0.81439    1.000
    H117     H        0.40430    0.08770    0.83110    1.000
    C177     C        0.33260    0.04690    0.75525    1.000
    H118     H        0.34860    0.07610    0.73270    1.000
    C178     C        0.57807    0.57140    0.52020    1.000
    H119     H        0.59830    0.54680    0.49910    1.000
    C179     C        0.51095    0.12780    0.02467    1.000
    C180     C        0.31328    0.86880    0.61999    1.000
    H120     H        0.33350    0.86970    0.66010    1.000
    N49      N        0.62883    0.21899    0.08254    1.000
    N50      N        0.27754    0.86410    0.08781    1.000
    N51      N        0.27873    0.99990    0.72832    1.000
    N52      N        0.42520    0.03889    0.02693    1.000
    N53      N        0.34373    0.98144    0.94025    1.000
    N54      N        0.42515    0.07282    0.93664    1.000
    N55      N        0.25541    0.90990    0.59221    1.000
    N56      N        0.60820    0.56472    0.57792    1.000
    N57      N        0.25309    0.77720    0.22799    1.000
    N58      N        0.40253    0.73998    0.52647    1.000
    N59      N        0.39578    0.70100    0.43508    1.000
    N60      N        0.31276    0.78746    0.44067    1.000
    Ag11     Ag       0.22596    0.79144    0.13180    1.000
    Ag12     Ag       0.70535    0.49979    0.63232    1.000
    C181     C        0.87164    0.43790    0.08821    1.000
    H121     H        0.91420    0.45960    0.10940    1.000
    C182     C        0.07705    0.10000    0.60715    1.000
    H122     H        0.09670    0.09570    0.64710    1.000
    C183     C        0.87158    0.49250    0.99718    1.000
    C184     C        0.84588    0.28100    0.49826    1.000
    C185     C        0.01837    0.11310    0.49050    1.000
    H123     H        0.99940    0.11640    0.45050    1.000
    C186     C        0.09689    0.68340    0.11112    1.000
    H124     H        0.11500    0.68920    0.15100    1.000
    C187     C        0.75612    0.36690    0.50327    1.000
    H125     H        0.73530    0.36720    0.46320    1.000
    C188     C        0.77682    0.41360    0.99986    1.000
    H126     H        0.75450    0.41790    0.96000    1.000
    C189     C        0.92477    0.19910    0.49269    1.000
    C190     C        0.83959    0.44750    0.02928    1.000
    C191     C        0.87190    0.52360    0.91175    1.000
    C192     C        0.72788    0.40750    0.53434    1.000
    H127     H        0.68750    0.43480    0.51420    1.000
    C193     C        0.03887    0.63910    0.08415    1.000
    H128     H        0.01820    0.61650    0.10560    1.000
    C194     C        0.72000    0.30170    0.25918    1.000
    H129     H        0.67790    0.32540    0.24010    1.000
    C195     C        0.84147    0.51310    0.84815    1.000
    C196     C        0.80910    0.25730    0.34756    1.000
    C197     C        0.74746    0.37290    0.03035    1.000
    H130     H        0.70490    0.35060    0.01010    1.000
    C198     C        0.94986    0.57740    0.99395    1.000
    C199     C        0.83894    0.39490    0.11533    1.000
    H131     H        0.86130    0.38730    0.15500    1.000
    C200     C        0.78782    0.46140    0.82135    1.000
    H132     H        0.77200    0.43020    0.84310    1.000
    C201     C        0.01764    0.14200    0.58090    1.000
    H133     H        0.99790    0.16490    0.60300    1.000
    C202     C        0.81575    0.32560    0.53251    1.000
    C203     C        0.04312    0.66590    0.99452    1.000
    H134     H        0.02560    0.66210    0.95460    1.000
    C204     C        0.74657    0.29270    0.31827    1.000
    H135     H        0.72250    0.31040    0.33830    1.000
    C205     C        0.81310    0.24310    0.25672    1.000
    H136     H        0.83610    0.22580    0.23570    1.000
    C206     C        0.84370    0.23170    0.31614    1.000
    H137     H        0.88590    0.20770    0.33430    1.000
    C207     C        0.98722    0.15000    0.52167    1.000
    C208     C        0.84107    0.24750    0.41145    1.000
    C209     C        0.75790    0.45620    0.76219    1.000
    H138     H        0.72170    0.42110    0.74470    1.000
    C210     C        0.10106    0.70910    0.02520    1.000
    H139     H        0.12240    0.73310    0.00480    1.000
    C211     C        0.84437    0.32530    0.59191    1.000
    H140     H        0.88370    0.29640    0.61270    1.000
    C212     C        0.86624    0.55510    0.81439    1.000
    H141     H        0.90430    0.58770    0.83110    1.000
    C213     C        0.83260    0.54690    0.75525    1.000
    H142     H        0.84860    0.57610    0.73270    1.000
    C214     C        0.07807    0.07140    0.52020    1.000
    H143     H        0.09830    0.04680    0.49910    1.000
    C215     C        0.01095    0.62780    0.02467    1.000
    C216     C        0.81328    0.36880    0.61999    1.000
    H144     H        0.83350    0.36970    0.66010    1.000
    N61      N        0.12883    0.71899    0.08254    1.000
    N62      N        0.77754    0.36410    0.08781    1.000
    N63      N        0.77873    0.49990    0.72832    1.000
    N64      N        0.92520    0.53889    0.02693    1.000
    N65      N        0.84373    0.48144    0.94025    1.000
    N66      N        0.92515    0.57282    0.93664    1.000
    N67      N        0.75541    0.40990    0.59221    1.000
    N68      N        0.10820    0.06472    0.57792    1.000
    N69      N        0.75309    0.27720    0.22799    1.000
    N70      N        0.90253    0.23998    0.52647    1.000
    N71      N        0.89578    0.20100    0.43508    1.000
    N72      N        0.81276    0.28746    0.44067    1.000
    Ag13     Ag       0.27404    0.29144    0.36820    1.000
    Ag14     Ag       0.79465    0.99979    0.86768    1.000
    C217     C        0.62836    0.93790    0.41179    1.000
    H145     H        0.58580    0.95960    0.39060    1.000
    C218     C        0.42295    0.60000    0.89285    1.000
    H146     H        0.40330    0.59570    0.85290    1.000
    C219     C        0.62842    0.99250    0.50282    1.000
    C220     C        0.65412    0.78100    0.00174    1.000
    C221     C        0.48163    0.61310    0.00950    1.000
    H147     H        0.50060    0.61640    0.04950    1.000
    C222     C        0.40311    0.18340    0.38888    1.000
    H148     H        0.38500    0.18920    0.34900    1.000
    C223     C        0.74388    0.86690    0.99673    1.000
    H149     H        0.76470    0.86720    0.03680    1.000
    C224     C        0.72318    0.91360    0.50014    1.000
    H150     H        0.74550    0.91790    0.54000    1.000
    C225     C        0.57523    0.69910    0.00731    1.000
    C226     C        0.66041    0.94750    0.47072    1.000
    C227     C        0.62810    0.02360    0.58825    1.000
    C228     C        0.77212    0.90750    0.96566    1.000
    H151     H        0.81250    0.93480    0.98580    1.000
    C229     C        0.46113    0.13910    0.41585    1.000
    H152     H        0.48180    0.11650    0.39440    1.000
    C230     C        0.78000    0.80170    0.24082    1.000
    H153     H        0.82210    0.82540    0.25990    1.000
    C231     C        0.65853    0.01310    0.65185    1.000
    C232     C        0.69090    0.75730    0.15244    1.000
    C233     C        0.75254    0.87290    0.46965    1.000
    H154     H        0.79510    0.85060    0.48990    1.000
    C234     C        0.55014    0.07740    0.50605    1.000
    C235     C        0.66106    0.89490    0.38467    1.000
    H155     H        0.63870    0.88730    0.34500    1.000
    C236     C        0.71218    0.96140    0.67865    1.000
    H156     H        0.72800    0.93020    0.65690    1.000
    C237     C        0.48236    0.64200    0.91910    1.000
    H157     H        0.50210    0.66490    0.89700    1.000
    C238     C        0.68425    0.82560    0.96749    1.000
    C239     C        0.45688    0.16590    0.50548    1.000
    H158     H        0.47440    0.16210    0.54540    1.000
    C240     C        0.75343    0.79270    0.18173    1.000
    H159     H        0.77750    0.81040    0.16170    1.000
    C241     C        0.68690    0.74310    0.24328    1.000
    H160     H        0.66390    0.72580    0.26430    1.000
    C242     C        0.65630    0.73170    0.18386    1.000
    H161     H        0.61410    0.70770    0.16570    1.000
    C243     C        0.51278    0.65000    0.97833    1.000
    C244     C        0.65893    0.74750    0.08855    1.000
    C245     C        0.74210    0.95620    0.73781    1.000
    H162     H        0.77830    0.92110    0.75530    1.000
    C246     C        0.39894    0.20910    0.47480    1.000
    H163     H        0.37760    0.23310    0.49520    1.000
    C247     C        0.65563    0.82530    0.90809    1.000
    H164     H        0.61630    0.79640    0.88730    1.000
    C248     C        0.63376    0.05510    0.68561    1.000
    H165     H        0.59570    0.08770    0.66890    1.000
    C249     C        0.66740    0.04690    0.74475    1.000
    H166     H        0.65140    0.07610    0.76730    1.000
    C250     C        0.42193    0.57140    0.97980    1.000
    H167     H        0.40170    0.54680    0.00090    1.000
    C251     C        0.48905    0.12780    0.47533    1.000
    C252     C        0.68672    0.86880    0.88001    1.000
    H168     H        0.66650    0.86970    0.83990    1.000
    N73      N        0.37117    0.21899    0.41746    1.000
    N74      N        0.72246    0.86410    0.41219    1.000
    N75      N        0.72127    0.99990    0.77168    1.000
    N76      N        0.57480    0.03889    0.47307    1.000
    N77      N        0.65627    0.98144    0.55975    1.000
    N78      N        0.57485    0.07282    0.56336    1.000
    N79      N        0.74459    0.90990    0.90779    1.000
    N80      N        0.39180    0.56472    0.92208    1.000
    N81      N        0.74691    0.77720    0.27201    1.000
    N82      N        0.59747    0.73998    0.97353    1.000
    N83      N        0.60422    0.70100    0.06492    1.000
    N84      N        0.68724    0.78746    0.05933    1.000
    Ag15     Ag       0.77404    0.79144    0.36820    1.000
    Ag16     Ag       0.29465    0.49979    0.86768    1.000
    C253     C        0.12836    0.43790    0.41179    1.000
    H169     H        0.08580    0.45960    0.39060    1.000
    C254     C        0.92295    0.10000    0.89285    1.000
    H170     H        0.90330    0.09570    0.85290    1.000
    C255     C        0.12842    0.49250    0.50282    1.000
    C256     C        0.15412    0.28100    0.00174    1.000
    C257     C        0.98163    0.11310    0.00950    1.000
    H171     H        0.00060    0.11640    0.04950    1.000
    C258     C        0.90311    0.68340    0.38888    1.000
    H172     H        0.88500    0.68920    0.34900    1.000
    C259     C        0.24388    0.36690    0.99673    1.000
    H173     H        0.26470    0.36720    0.03680    1.000
    C260     C        0.22318    0.41360    0.50014    1.000
    H174     H        0.24550    0.41790    0.54000    1.000
    C261     C        0.07523    0.19910    0.00731    1.000
    C262     C        0.16041    0.44750    0.47072    1.000
    C263     C        0.12810    0.52360    0.58825    1.000
    C264     C        0.27212    0.40750    0.96566    1.000
    H175     H        0.31250    0.43480    0.98580    1.000
    C265     C        0.96113    0.63910    0.41585    1.000
    H176     H        0.98180    0.61650    0.39440    1.000
    C266     C        0.28000    0.30170    0.24082    1.000
    H177     H        0.32210    0.32540    0.25990    1.000
    C267     C        0.15853    0.51310    0.65185    1.000
    C268     C        0.19090    0.25730    0.15244    1.000
    C269     C        0.25254    0.37290    0.46965    1.000
    H178     H        0.29510    0.35060    0.48990    1.000
    C270     C        0.05014    0.57740    0.50605    1.000
    C271     C        0.16106    0.39490    0.38467    1.000
    H179     H        0.13870    0.38730    0.34500    1.000
    C272     C        0.21218    0.46140    0.67865    1.000
    H180     H        0.22800    0.43020    0.65690    1.000
    C273     C        0.98236    0.14200    0.91910    1.000
    H181     H        0.00210    0.16490    0.89700    1.000
    C274     C        0.18425    0.32560    0.96749    1.000
    C275     C        0.95688    0.66590    0.50548    1.000
    H182     H        0.97440    0.66210    0.54540    1.000
    C276     C        0.25343    0.29270    0.18173    1.000
    H183     H        0.27750    0.31040    0.16170    1.000
    C277     C        0.18690    0.24310    0.24328    1.000
    H184     H        0.16390    0.22580    0.26430    1.000
    C278     C        0.15630    0.23170    0.18386    1.000
    H185     H        0.11410    0.20770    0.16570    1.000
    C279     C        0.01278    0.15000    0.97833    1.000
    C280     C        0.15893    0.24750    0.08855    1.000
    C281     C        0.24210    0.45620    0.73781    1.000
    H186     H        0.27830    0.42110    0.75530    1.000
    C282     C        0.89894    0.70910    0.47480    1.000
    H187     H        0.87760    0.73310    0.49520    1.000
    C283     C        0.15563    0.32530    0.90809    1.000
    H188     H        0.11630    0.29640    0.88730    1.000
    C284     C        0.13376    0.55510    0.68561    1.000
    H189     H        0.09570    0.58770    0.66890    1.000
    C285     C        0.16740    0.54690    0.74475    1.000
    H190     H        0.15140    0.57610    0.76730    1.000
    C286     C        0.92193    0.07140    0.97980    1.000
    H191     H        0.90170    0.04680    0.00090    1.000
    C287     C        0.98905    0.62780    0.47533    1.000
    C288     C        0.18672    0.36880    0.88001    1.000
    H192     H        0.16650    0.36970    0.83990    1.000
    N85      N        0.87117    0.71899    0.41746    1.000
    N86      N        0.22246    0.36410    0.41219    1.000
    N87      N        0.22127    0.49990    0.77168    1.000
    N88      N        0.07480    0.53889    0.47307    1.000
    N89      N        0.15627    0.48144    0.55975    1.000
    N90      N        0.07485    0.57282    0.56336    1.000
    N91      N        0.24459    0.40990    0.90779    1.000
    N92      N        0.89180    0.06472    0.92208    1.000
    N93      N        0.24691    0.27720    0.27201    1.000
    N94      N        0.09747    0.23998    0.97353    1.000
    N95      N        0.10422    0.20100    0.06492    1.000
    N96      N        0.18724    0.28746    0.05933    1.000
