# CIF file generated by openbabel 3.1.0, see https://openbabel.org
data_I
_chemical_name_common 'image0'
_cell_length_a 27.541
_cell_length_b 11.126
_cell_length_c 16.991
_cell_angle_alpha 90
_cell_angle_beta 99.01
_cell_angle_gamma 90
_space_group_name_H-M_alt 'P 1'
_space_group_name_Hall 'P 1'
loop_
    _symmetry_equiv_pos_as_xyz
    x,y,z
loop_
    _atom_site_label
    _atom_site_type_symbol
    _atom_site_fract_x
    _atom_site_fract_y
    _atom_site_fract_z
    _atom_site_occupancy
    Ce1      Ce       0.25216    0.63210    0.69040    1.000
    Ce2      Ce       0.25119    0.67389    0.97335    1.000
    C1       C        0.17690    0.87500    0.62510    1.000
    C2       C        0.12810    0.91400    0.63980    1.000
    C3       C        0.10860    0.87200    0.70460    1.000
    H1       H        0.12690    0.82040    0.74120    1.000
    C4       C        0.06240    0.90500    0.71450    1.000
    H2       H        0.04920    0.87610    0.75800    1.000
    C5       C        0.03480    0.98100    0.66130    1.000
    C6       C        0.09880    0.99330    0.59120    1.000
    H3       H        0.11190    0.02650    0.54890    1.000
    C7       C        0.98320    0.01000    0.66650    1.000
    C8       C        0.95270    0.06060    0.60470    1.000
    H4       H        0.96490    0.08350    0.55880    1.000
    C9       C        0.91970    0.99600    0.73850    1.000
    H5       H        0.90850    0.97490    0.78560    1.000
    C10      C        0.88640    0.04670    0.67960    1.000
    C11      C        0.90510    0.07730    0.61000    1.000
    H6       H        0.88420    0.10970    0.56690    1.000
    C12      C        0.83430    0.06550    0.68800    1.000
    C13      C        0.32900    0.58790    0.54810    1.000
    C14      C        0.38030    0.55800    0.53340    1.000
    C15      C        0.41000    0.47370    0.57770    1.000
    H7       H        0.39740    0.43270    0.61780    1.000
    C16      C        0.44620    0.59110    0.45940    1.000
    H8       H        0.45860    0.63170    0.41900    1.000
    C17      C        0.47430    0.51080    0.50550    1.000
    C18      C        0.39960    0.61200    0.47250    1.000
    H9       H        0.38000    0.66490    0.43900    1.000
    C19      C        0.02540    0.98000    0.99810    1.000
    C20      C        0.03660    0.91800    0.93310    1.000
    H10      H        0.01190    0.89890    0.89120    1.000
    C21      C        0.08410    0.88400    0.93010    1.000
    H11      H        0.09220    0.84700    0.88470    1.000
    C22      C        0.12020    0.90500    0.99630    1.000
    C23      C        0.10610    0.97300    0.05820    1.000
    H12      H        0.13030    0.99540    0.10010    1.000
    C24      C        0.17060    0.86400    0.99670    1.000
    C25      C        0.33810    0.58720    0.85830    1.000
    C26      C        0.39140    0.57810    0.85230    1.000
    C27      C        0.42820    0.59670    0.91600    1.000
    H13      H        0.42020    0.61980    0.96490    1.000
    C28      C        0.47650    0.58160    0.90790    1.000
    H14      H        0.50110    0.59240    0.95150    1.000
    C29      C        0.48840    0.55050    0.83530    1.000
    C30      C        0.40690    0.55880    0.77910    1.000
    H15      H        0.38320    0.55600    0.73360    1.000
    C31      C        0.53890    0.51410    0.82730    1.000
    C32      C        0.54950    0.47360    0.75610    1.000
    H16      H        0.52750    0.48530    0.70930    1.000
    C33      C        0.59340    0.41500    0.75490    1.000
    H17      H        0.60010    0.38050    0.70790    1.000
    C34      C        0.62790    0.40760    0.82480    1.000
    C35      C        0.61610    0.46450    0.89240    1.000
    H18      H        0.63950    0.46650    0.93820    1.000
    C36      C        0.67410    0.33560    0.82650    1.000
    N1       N        0.05340    0.02650    0.59980    1.000
    N2       N        0.96680    0.97300    0.73390    1.000
    N3       N        0.45620    0.44800    0.56550    1.000
    N4       N        0.06010    0.00700    0.06090    1.000
    N5       N        0.45410    0.54420    0.77060    1.000
    N6       N        0.57260    0.51620    0.89400    1.000
    O1       O        0.20460    0.82070    0.68140    1.000
    O2       O        0.18800    0.89590    0.55600    1.000
    O3       O        0.82330    0.07990    0.75460    1.000
    O4       O        0.80320    0.06280    0.62410    1.000
    O5       O        0.31790    0.56110    0.61380    1.000
    O6       O        0.30090    0.64240    0.49170    1.000
    O7       O        0.18060    0.81170    0.93450    1.000
    O8       O        0.20120    0.86720    0.05900    1.000
    O9       O        0.30710    0.54930    0.80130    1.000
    O10      O        0.32710    0.62600    0.92160    1.000
    O11      O        0.70180    0.32530    0.89130    1.000
    O12      O        0.68160    0.28610    0.76310    1.000
    O13      O        0.25090    0.77510    0.83270    1.000
    H19      H        0.27910    0.82810    0.83770    1.000
    H20      H        0.22190    0.82580    0.82280    1.000
    Ce3      Ce       0.74784    0.13210    0.80960    1.000
    Ce4      Ce       0.74881    0.17389    0.52665    1.000
    C37      C        0.82310    0.37500    0.87490    1.000
    C38      C        0.87190    0.41400    0.86020    1.000
    C39      C        0.89140    0.37200    0.79540    1.000
    H21      H        0.87310    0.32040    0.75880    1.000
    C40      C        0.93760    0.40500    0.78550    1.000
    H22      H        0.95080    0.37610    0.74200    1.000
    C41      C        0.96520    0.48100    0.83870    1.000
    C42      C        0.90120    0.49330    0.90880    1.000
    H23      H        0.88810    0.52650    0.95110    1.000
    C43      C        0.01680    0.51000    0.83350    1.000
    C44      C        0.04730    0.56060    0.89530    1.000
    H24      H        0.03510    0.58350    0.94120    1.000
    C45      C        0.08030    0.49600    0.76150    1.000
    H25      H        0.09150    0.47490    0.71440    1.000
    C46      C        0.11360    0.54670    0.82040    1.000
    C47      C        0.09490    0.57730    0.89000    1.000
    H26      H        0.11580    0.60970    0.93310    1.000
    C48      C        0.16570    0.56550    0.81200    1.000
    C49      C        0.67100    0.08790    0.95190    1.000
    C50      C        0.61970    0.05800    0.96660    1.000
    C51      C        0.59000    0.97370    0.92230    1.000
    H27      H        0.60260    0.93270    0.88220    1.000
    C52      C        0.55380    0.09110    0.04060    1.000
    H28      H        0.54140    0.13170    0.08100    1.000
    C53      C        0.52570    0.01080    0.99450    1.000
    C54      C        0.60040    0.11200    0.02750    1.000
    H29      H        0.62000    0.16490    0.06100    1.000
    C55      C        0.97460    0.48000    0.50190    1.000
    C56      C        0.96340    0.41800    0.56690    1.000
    H30      H        0.98810    0.39890    0.60880    1.000
    C57      C        0.91590    0.38400    0.56990    1.000
    H31      H        0.90780    0.34700    0.61530    1.000
    C58      C        0.87980    0.40500    0.50370    1.000
    C59      C        0.89390    0.47300    0.44180    1.000
    H32      H        0.86970    0.49540    0.39990    1.000
    C60      C        0.82940    0.36400    0.50330    1.000
    C61      C        0.66190    0.08720    0.64170    1.000
    C62      C        0.60860    0.07810    0.64770    1.000
    C63      C        0.57180    0.09670    0.58400    1.000
    H33      H        0.57980    0.11980    0.53510    1.000
    C64      C        0.52350    0.08160    0.59210    1.000
    H34      H        0.49890    0.09240    0.54850    1.000
    C65      C        0.51160    0.05050    0.66470    1.000
    C66      C        0.59310    0.05880    0.72090    1.000
    H35      H        0.61680    0.05600    0.76640    1.000
    C67      C        0.46110    0.01410    0.67270    1.000
    C68      C        0.45050    0.97360    0.74390    1.000
    H36      H        0.47250    0.98530    0.79070    1.000
    C69      C        0.40660    0.91500    0.74510    1.000
    H37      H        0.39990    0.88050    0.79210    1.000
    C70      C        0.37210    0.90760    0.67520    1.000
    C71      C        0.38390    0.96450    0.60760    1.000
    H38      H        0.36050    0.96650    0.56180    1.000
    C72      C        0.32590    0.83560    0.67350    1.000
    N7       N        0.94660    0.52650    0.90020    1.000
    N8       N        0.03320    0.47300    0.76610    1.000
    N9       N        0.54380    0.94800    0.93450    1.000
    N10      N        0.93990    0.50700    0.43910    1.000
    N11      N        0.54590    0.04420    0.72940    1.000
    N12      N        0.42740    0.01620    0.60600    1.000
    O14      O        0.79540    0.32070    0.81860    1.000
    O15      O        0.81200    0.39590    0.94400    1.000
    O16      O        0.17670    0.57990    0.74540    1.000
    O17      O        0.19680    0.56280    0.87590    1.000
    O18      O        0.68210    0.06110    0.88620    1.000
    O19      O        0.69910    0.14240    0.00830    1.000
    O20      O        0.81940    0.31170    0.56550    1.000
    O21      O        0.79880    0.36720    0.44100    1.000
    O22      O        0.69290    0.04930    0.69870    1.000
    O23      O        0.67290    0.12600    0.57840    1.000
    O24      O        0.29820    0.82530    0.60870    1.000
    O25      O        0.31840    0.78610    0.73690    1.000
    O26      O        0.74910    0.27510    0.66730    1.000
    H39      H        0.72090    0.32810    0.66230    1.000
    H40      H        0.77810    0.32580    0.67720    1.000
    Ce5      Ce       0.74784    0.36790    0.30960    1.000
    Ce6      Ce       0.74881    0.32611    0.02665    1.000
    C73      C        0.82310    0.12500    0.37490    1.000
    C74      C        0.87190    0.08600    0.36020    1.000
    C75      C        0.89140    0.12800    0.29540    1.000
    H41      H        0.87310    0.17960    0.25880    1.000
    C76      C        0.93760    0.09500    0.28550    1.000
    H42      H        0.95080    0.12390    0.24200    1.000
    C77      C        0.96520    0.01900    0.33870    1.000
    C78      C        0.90120    0.00670    0.40880    1.000
    H43      H        0.88810    0.97350    0.45110    1.000
    C79      C        0.01680    0.99000    0.33350    1.000
    C80      C        0.04730    0.93940    0.39530    1.000
    H44      H        0.03510    0.91650    0.44120    1.000
    C81      C        0.08030    0.00400    0.26150    1.000
    H45      H        0.09150    0.02510    0.21440    1.000
    C82      C        0.11360    0.95330    0.32040    1.000
    C83      C        0.09490    0.92270    0.39000    1.000
    H46      H        0.11580    0.89030    0.43310    1.000
    C84      C        0.16570    0.93450    0.31200    1.000
    C85      C        0.67100    0.41210    0.45190    1.000
    C86      C        0.61970    0.44200    0.46660    1.000
    C87      C        0.59000    0.52630    0.42230    1.000
    H47      H        0.60260    0.56730    0.38220    1.000
    C88      C        0.55380    0.40890    0.54060    1.000
    H48      H        0.54140    0.36830    0.58100    1.000
    C89      C        0.52570    0.48920    0.49450    1.000
    C90      C        0.60040    0.38800    0.52750    1.000
    H49      H        0.62000    0.33510    0.56100    1.000
    C91      C        0.97460    0.02000    0.00190    1.000
    C92      C        0.96340    0.08200    0.06690    1.000
    H50      H        0.98810    0.10110    0.10880    1.000
    C93      C        0.91590    0.11600    0.06990    1.000
    H51      H        0.90780    0.15300    0.11530    1.000
    C94      C        0.87980    0.09500    0.00370    1.000
    C95      C        0.89390    0.02700    0.94180    1.000
    H52      H        0.86970    0.00460    0.89990    1.000
    C96      C        0.82940    0.13600    0.00330    1.000
    C97      C        0.66190    0.41280    0.14170    1.000
    C98      C        0.60860    0.42190    0.14770    1.000
    C99      C        0.57180    0.40330    0.08400    1.000
    H53      H        0.57980    0.38020    0.03510    1.000
    C100     C        0.52350    0.41840    0.09210    1.000
    H54      H        0.49890    0.40760    0.04850    1.000
    C101     C        0.51160    0.44950    0.16470    1.000
    C102     C        0.59310    0.44120    0.22090    1.000
    H55      H        0.61680    0.44400    0.26640    1.000
    C103     C        0.46110    0.48590    0.17270    1.000
    C104     C        0.45050    0.52640    0.24390    1.000
    H56      H        0.47250    0.51470    0.29070    1.000
    C105     C        0.40660    0.58500    0.24510    1.000
    H57      H        0.39990    0.61950    0.29210    1.000
    C106     C        0.37210    0.59240    0.17520    1.000
    C107     C        0.38390    0.53550    0.10760    1.000
    H58      H        0.36050    0.53350    0.06180    1.000
    C108     C        0.32590    0.66440    0.17350    1.000
    N13      N        0.94660    0.97350    0.40020    1.000
    N14      N        0.03320    0.02700    0.26610    1.000
    N15      N        0.54380    0.55200    0.43450    1.000
    N16      N        0.93990    0.99300    0.93910    1.000
    N17      N        0.54590    0.45580    0.22940    1.000
    N18      N        0.42740    0.48380    0.10600    1.000
    O27      O        0.79540    0.17930    0.31860    1.000
    O28      O        0.81200    0.10410    0.44400    1.000
    O29      O        0.17670    0.92010    0.24540    1.000
    O30      O        0.19680    0.93720    0.37590    1.000
    O31      O        0.68210    0.43890    0.38620    1.000
    O32      O        0.69910    0.35760    0.50830    1.000
    O33      O        0.81940    0.18830    0.06550    1.000
    O34      O        0.79880    0.13280    0.94100    1.000
    O35      O        0.69290    0.45070    0.19870    1.000
    O36      O        0.67290    0.37400    0.07840    1.000
    O37      O        0.29820    0.67470    0.10870    1.000
    O38      O        0.31840    0.71390    0.23690    1.000
    O39      O        0.74910    0.22490    0.16730    1.000
    H59      H        0.72090    0.17190    0.16230    1.000
    H60      H        0.77810    0.17420    0.17720    1.000
    Ce7      Ce       0.25216    0.86790    0.19040    1.000
    Ce8      Ce       0.25119    0.82611    0.47335    1.000
    C109     C        0.17690    0.62500    0.12510    1.000
    C110     C        0.12810    0.58600    0.13980    1.000
    C111     C        0.10860    0.62800    0.20460    1.000
    H61      H        0.12690    0.67960    0.24120    1.000
    C112     C        0.06240    0.59500    0.21450    1.000
    H62      H        0.04920    0.62390    0.25800    1.000
    C113     C        0.03480    0.51900    0.16130    1.000
    C114     C        0.09880    0.50670    0.09120    1.000
    H63      H        0.11190    0.47350    0.04890    1.000
    C115     C        0.98320    0.49000    0.16650    1.000
    C116     C        0.95270    0.43940    0.10470    1.000
    H64      H        0.96490    0.41650    0.05880    1.000
    C117     C        0.91970    0.50400    0.23850    1.000
    H65      H        0.90850    0.52510    0.28560    1.000
    C118     C        0.88640    0.45330    0.17960    1.000
    C119     C        0.90510    0.42270    0.11000    1.000
    H66      H        0.88420    0.39030    0.06690    1.000
    C120     C        0.83430    0.43450    0.18800    1.000
    C121     C        0.32900    0.91210    0.04810    1.000
    C122     C        0.38030    0.94200    0.03340    1.000
    C123     C        0.41000    0.02630    0.07770    1.000
    H67      H        0.39740    0.06730    0.11780    1.000
    C124     C        0.44620    0.90890    0.95940    1.000
    H68      H        0.45860    0.86830    0.91900    1.000
    C125     C        0.47430    0.98920    0.00550    1.000
    C126     C        0.39960    0.88800    0.97250    1.000
    H69      H        0.38000    0.83510    0.93900    1.000
    C127     C        0.02540    0.52000    0.49810    1.000
    C128     C        0.03660    0.58200    0.43310    1.000
    H70      H        0.01190    0.60110    0.39120    1.000
    C129     C        0.08410    0.61600    0.43010    1.000
    H71      H        0.09220    0.65300    0.38470    1.000
    C130     C        0.12020    0.59500    0.49630    1.000
    C131     C        0.10610    0.52700    0.55820    1.000
    H72      H        0.13030    0.50460    0.60010    1.000
    C132     C        0.17060    0.63600    0.49670    1.000
    C133     C        0.33810    0.91280    0.35830    1.000
    C134     C        0.39140    0.92190    0.35230    1.000
    C135     C        0.42820    0.90330    0.41600    1.000
    H73      H        0.42020    0.88020    0.46490    1.000
    C136     C        0.47650    0.91840    0.40790    1.000
    H74      H        0.50110    0.90760    0.45150    1.000
    C137     C        0.48840    0.94950    0.33530    1.000
    C138     C        0.40690    0.94120    0.27910    1.000
    H75      H        0.38320    0.94400    0.23360    1.000
    C139     C        0.53890    0.98590    0.32730    1.000
    C140     C        0.54950    0.02640    0.25610    1.000
    H76      H        0.52750    0.01470    0.20930    1.000
    C141     C        0.59340    0.08500    0.25490    1.000
    H77      H        0.60010    0.11950    0.20790    1.000
    C142     C        0.62790    0.09240    0.32480    1.000
    C143     C        0.61610    0.03550    0.39240    1.000
    H78      H        0.63950    0.03350    0.43820    1.000
    C144     C        0.67410    0.16440    0.32650    1.000
    N19      N        0.05340    0.47350    0.09980    1.000
    N20      N        0.96680    0.52700    0.23390    1.000
    N21      N        0.45620    0.05200    0.06550    1.000
    N22      N        0.06010    0.49300    0.56090    1.000
    N23      N        0.45410    0.95580    0.27060    1.000
    N24      N        0.57260    0.98380    0.39400    1.000
    O40      O        0.20460    0.67930    0.18140    1.000
    O41      O        0.18800    0.60410    0.05600    1.000
    O42      O        0.82330    0.42010    0.25460    1.000
    O43      O        0.80320    0.43720    0.12410    1.000
    O44      O        0.31790    0.93890    0.11380    1.000
    O45      O        0.30090    0.85760    0.99170    1.000
    O46      O        0.18060    0.68830    0.43450    1.000
    O47      O        0.20120    0.63280    0.55900    1.000
    O48      O        0.30710    0.95070    0.30130    1.000
    O49      O        0.32710    0.87400    0.42160    1.000
    O50      O        0.70180    0.17470    0.39130    1.000
    O51      O        0.68160    0.21390    0.26310    1.000
    O52      O        0.25090    0.72490    0.33270    1.000
    H79      H        0.27910    0.67190    0.33770    1.000
    H80      H        0.22190    0.67420    0.32280    1.000
