# CIF file generated by openbabel 3.1.0, see https://openbabel.org
data_I
_chemical_name_common 'PAPPIH_clean'
_cell_length_a 13.0785
_cell_length_b 13.0785
_cell_length_c 20.083
_cell_angle_alpha 90
_cell_angle_beta 90
_cell_angle_gamma 120
_space_group_name_H-M_alt 'P 1'
_space_group_name_Hall 'P 1'
loop_
    _symmetry_equiv_pos_as_xyz
    x,y,z
loop_
    _atom_site_label
    _atom_site_type_symbol
    _atom_site_fract_x
    _atom_site_fract_y
    _atom_site_fract_z
    _atom_site_occupancy
    Cu1      Cu       0.38463    0.00000    0.00000    1.000
    Cu2      Cu       0.61537    0.61537    0.33333    1.000
    Cu3      Cu       0.00000    0.38463    0.66667    1.000
    H1       H        0.43410    0.17190    0.89330    1.000
    H2       H        0.15340    0.05680    0.77350    1.000
    H3       H        0.04460    0.91590    0.85300    1.000
    H4       H        0.13500    0.89980    0.94800    1.000
    H5       H        0.45630    0.26000    0.79420    1.000
    H6       H        0.52630    0.35380    0.69210    1.000
    H7       H        0.43350    0.49450    0.74120    1.000
    H8       H        0.52070    0.46810    0.78090    1.000
    H9       H        0.58880    0.59480    0.66040    1.000
    H10      H        0.62780    0.70040    0.78690    1.000
    H11      H        0.54440    0.70500    0.73240    1.000
    H12      H        0.68120    0.77050    0.72060    1.000
    H13      H        0.78030    0.65680    0.69330    1.000
    H14      H        0.70820    0.51850    0.69420    1.000
    H15      H        0.73580    0.58920    0.76110    1.000
    H16      H        0.36100    0.38350    0.62360    1.000
    H17      H        0.60480    0.50950    0.46820    1.000
    H18      H        0.35580    0.49630    0.35500    1.000
    H19      H        0.21470    0.38670    0.43320    1.000
    H20      H        0.27240    0.34290    0.53340    1.000
    H21      H        0.73780    0.56590    0.22663    1.000
    H22      H        0.90340    0.84660    0.10683    1.000
    H23      H        0.87130    0.95540    0.18633    1.000
    H24      H        0.76480    0.86500    0.28133    1.000
    H25      H        0.80370    0.54370    0.12753    1.000
    H26      H        0.82750    0.47370    0.02543    1.000
    H27      H        0.06100    0.56650    0.07453    1.000
    H28      H        0.94740    0.47930    0.11423    1.000
    H29      H        0.00600    0.41120    0.99373    1.000
    H30      H        0.07260    0.37220    0.12023    1.000
    H31      H        0.16060    0.45560    0.06573    1.000
    H32      H        0.08930    0.31880    0.05393    1.000
    H33      H        0.87650    0.21970    0.02663    1.000
    H34      H        0.81030    0.29180    0.02753    1.000
    H35      H        0.85340    0.26420    0.09443    1.000
    H36      H        0.02250    0.63900    0.95693    1.000
    H37      H        0.90470    0.39520    0.80153    1.000
    H38      H        0.14050    0.64420    0.68833    1.000
    H39      H        0.17200    0.78530    0.76653    1.000
    H40      H        0.07050    0.72760    0.86673    1.000
    H41      H        0.82810    0.26220    0.55997    1.000
    H42      H        0.94320    0.09660    0.44017    1.000
    H43      H        0.08410    0.12870    0.51967    1.000
    H44      H        0.10020    0.23520    0.61467    1.000
    H45      H        0.74000    0.19630    0.46087    1.000
    H46      H        0.64620    0.17250    0.35877    1.000
    H47      H        0.50550    0.93900    0.40787    1.000
    H48      H        0.53190    0.05260    0.44757    1.000
    H49      H        0.40520    0.99400    0.32707    1.000
    H50      H        0.29960    0.92740    0.45357    1.000
    H51      H        0.29500    0.83940    0.39907    1.000
    H52      H        0.22950    0.91070    0.38727    1.000
    H53      H        0.34320    0.12350    0.35997    1.000
    H54      H        0.48150    0.18970    0.36087    1.000
    H55      H        0.41080    0.14660    0.42777    1.000
    H56      H        0.61650    0.97750    0.29027    1.000
    H57      H        0.49050    0.09530    0.13487    1.000
    H58      H        0.50370    0.85950    0.02167    1.000
    H59      H        0.61330    0.82800    0.09987    1.000
    H60      H        0.65710    0.92950    0.20007    1.000
    H61      H        0.26220    0.82810    0.10670    1.000
    H62      H        0.09660    0.94320    0.22650    1.000
    H63      H        0.12870    0.08410    0.14700    1.000
    H64      H        0.23520    0.10020    0.05200    1.000
    H65      H        0.19630    0.74000    0.20580    1.000
    H66      H        0.17250    0.64620    0.30790    1.000
    H67      H        0.93900    0.50550    0.25880    1.000
    H68      H        0.05260    0.53190    0.21910    1.000
    H69      H        0.99400    0.40520    0.33960    1.000
    H70      H        0.92740    0.29960    0.21310    1.000
    H71      H        0.83940    0.29500    0.26760    1.000
    H72      H        0.91070    0.22950    0.27940    1.000
    H73      H        0.12350    0.34320    0.30670    1.000
    H74      H        0.18970    0.48150    0.30580    1.000
    H75      H        0.14660    0.41080    0.23890    1.000
    H76      H        0.97750    0.61650    0.37640    1.000
    H77      H        0.09530    0.49050    0.53180    1.000
    H78      H        0.85950    0.50370    0.64500    1.000
    H79      H        0.82800    0.61330    0.56680    1.000
    H80      H        0.92950    0.65710    0.46660    1.000
    H81      H        0.17190    0.43410    0.77337    1.000
    H82      H        0.05680    0.15340    0.89317    1.000
    H83      H        0.91590    0.04460    0.81367    1.000
    H84      H        0.89980    0.13500    0.71867    1.000
    H85      H        0.26000    0.45630    0.87247    1.000
    H86      H        0.35380    0.52630    0.97457    1.000
    H87      H        0.49450    0.43350    0.92547    1.000
    H88      H        0.46810    0.52070    0.88577    1.000
    H89      H        0.59480    0.58880    0.00627    1.000
    H90      H        0.70040    0.62780    0.87977    1.000
    H91      H        0.70500    0.54440    0.93427    1.000
    H92      H        0.77050    0.68120    0.94607    1.000
    H93      H        0.65680    0.78030    0.97337    1.000
    H94      H        0.51850    0.70820    0.97247    1.000
    H95      H        0.58920    0.73580    0.90557    1.000
    H96      H        0.38350    0.36100    0.04307    1.000
    H97      H        0.50950    0.60480    0.19847    1.000
    H98      H        0.49630    0.35580    0.31167    1.000
    H99      H        0.38670    0.21470    0.23347    1.000
    H100     H        0.34290    0.27240    0.13327    1.000
    H101     H        0.56590    0.73780    0.44003    1.000
    H102     H        0.84660    0.90340    0.55983    1.000
    H103     H        0.95540    0.87130    0.48033    1.000
    H104     H        0.86500    0.76480    0.38533    1.000
    H105     H        0.54370    0.80370    0.53913    1.000
    H106     H        0.47370    0.82750    0.64123    1.000
    H107     H        0.56650    0.06100    0.59213    1.000
    H108     H        0.47930    0.94740    0.55243    1.000
    H109     H        0.41120    0.00600    0.67293    1.000
    H110     H        0.37220    0.07260    0.54643    1.000
    H111     H        0.45560    0.16060    0.60093    1.000
    H112     H        0.31880    0.08930    0.61273    1.000
    H113     H        0.21970    0.87650    0.64003    1.000
    H114     H        0.29180    0.81030    0.63913    1.000
    H115     H        0.26420    0.85340    0.57223    1.000
    H116     H        0.63900    0.02250    0.70973    1.000
    H117     H        0.39520    0.90470    0.86513    1.000
    H118     H        0.64420    0.14050    0.97833    1.000
    H119     H        0.78530    0.17200    0.90013    1.000
    H120     H        0.72760    0.07050    0.79993    1.000
    C1       C        0.35540    0.11810    0.88403    1.000
    C2       C        0.30640    0.13160    0.82493    1.000
    C3       C        0.18880    0.05260    0.81276    1.000
    C4       C        0.12470    0.96730    0.85967    1.000
    C5       C        0.17920    0.95800    0.91682    1.000
    C6       C        0.35450    0.26450    0.72771    1.000
    C7       C        0.46090    0.37000    0.69519    1.000
    C8       C        0.49980    0.48130    0.73668    1.000
    C9       C        0.60380    0.59210    0.70805    1.000
    C10      C        0.61540    0.70210    0.73990    1.000
    C11      C        0.71740    0.58880    0.71480    1.000
    C12      C        0.49300    0.40030    0.57472    1.000
    C13      C        0.44560    0.42250    0.51127    1.000
    C14      C        0.52560    0.48550    0.46155    1.000
    C15      C        0.37880    0.47700    0.39462    1.000
    C16      C        0.29380    0.41210    0.44151    1.000
    C17      C        0.32800    0.38540    0.50075    1.000
    C18      C        0.76270    0.64460    0.21736    1.000
    C19      C        0.82520    0.69360    0.15826    1.000
    C20      C        0.86380    0.81120    0.14609    1.000
    C21      C        0.84260    0.87530    0.19300    1.000
    C22      C        0.77880    0.82080    0.25015    1.000
    C23      C        0.91000    0.64550    0.06104    1.000
    C24      C        0.90910    0.53910    0.02852    1.000
    C25      C        0.98150    0.50020    0.07001    1.000
    C26      C        0.98830    0.39620    0.04138    1.000
    C27      C        0.08670    0.38460    0.07323    1.000
    C28      C        0.87140    0.28260    0.04813    1.000
    C29      C        0.90730    0.50700    0.90805    1.000
    C30      C        0.97690    0.55440    0.84460    1.000
    C31      C        0.95990    0.47440    0.79488    1.000
    C32      C        0.09820    0.62120    0.72795    1.000
    C33      C        0.11830    0.70620    0.77484    1.000
    C34      C        0.05740    0.67200    0.83408    1.000
    C35      C        0.88190    0.23730    0.55070    1.000
    C36      C        0.86840    0.17480    0.49160    1.000
    C37      C        0.94740    0.13620    0.47943    1.000
    C38      C        0.03270    0.15740    0.52634    1.000
    C39      C        0.04200    0.22120    0.58349    1.000
    C40      C        0.73550    0.09000    0.39438    1.000
    C41      C        0.63000    0.09090    0.36186    1.000
    C42      C        0.51870    0.01850    0.40335    1.000
    C43      C        0.40790    0.01170    0.37472    1.000
    C44      C        0.29790    0.91330    0.40657    1.000
    C45      C        0.41120    0.12860    0.38147    1.000
    C46      C        0.59970    0.09270    0.24139    1.000
    C47      C        0.57750    0.02310    0.17794    1.000
    C48      C        0.51450    0.04010    0.12822    1.000
    C49      C        0.52300    0.90180    0.06129    1.000
    C50      C        0.58790    0.88170    0.10818    1.000
    C51      C        0.61460    0.94260    0.16742    1.000
    C52      C        0.23730    0.88190    0.11597    1.000
    C53      C        0.17480    0.86840    0.17507    1.000
    C54      C        0.13620    0.94740    0.18724    1.000
    C55      C        0.15740    0.03270    0.14033    1.000
    C56      C        0.22120    0.04200    0.08318    1.000
    C57      C        0.09000    0.73550    0.27229    1.000
    C58      C        0.09090    0.63000    0.30481    1.000
    C59      C        0.01850    0.51870    0.26332    1.000
    C60      C        0.01170    0.40790    0.29195    1.000
    C61      C        0.91330    0.29790    0.26010    1.000
    C62      C        0.12860    0.41120    0.28520    1.000
    C63      C        0.09270    0.59970    0.42528    1.000
    C64      C        0.02310    0.57750    0.48873    1.000
    C65      C        0.04010    0.51450    0.53845    1.000
    C66      C        0.90180    0.52300    0.60538    1.000
    C67      C        0.88170    0.58790    0.55849    1.000
    C68      C        0.94260    0.61460    0.49925    1.000
    C69      C        0.11810    0.35540    0.78264    1.000
    C70      C        0.13160    0.30640    0.84174    1.000
    C71      C        0.05260    0.18880    0.85391    1.000
    C72      C        0.96730    0.12470    0.80700    1.000
    C73      C        0.95800    0.17920    0.74985    1.000
    C74      C        0.26450    0.35450    0.93896    1.000
    C75      C        0.37000    0.46090    0.97148    1.000
    C76      C        0.48130    0.49980    0.92999    1.000
    C77      C        0.59210    0.60380    0.95862    1.000
    C78      C        0.70210    0.61540    0.92677    1.000
    C79      C        0.58880    0.71740    0.95187    1.000
    C80      C        0.40030    0.49300    0.09195    1.000
    C81      C        0.42250    0.44560    0.15540    1.000
    C82      C        0.48550    0.52560    0.20512    1.000
    C83      C        0.47700    0.37880    0.27205    1.000
    C84      C        0.41210    0.29380    0.22516    1.000
    C85      C        0.38540    0.32800    0.16592    1.000
    C86      C        0.64460    0.76270    0.44930    1.000
    C87      C        0.69360    0.82520    0.50840    1.000
    C88      C        0.81120    0.86380    0.52057    1.000
    C89      C        0.87530    0.84260    0.47366    1.000
    C90      C        0.82080    0.77880    0.41651    1.000
    C91      C        0.64550    0.91000    0.60562    1.000
    C92      C        0.53910    0.90910    0.63814    1.000
    C93      C        0.50020    0.98150    0.59665    1.000
    C94      C        0.39620    0.98830    0.62528    1.000
    C95      C        0.38460    0.08670    0.59343    1.000
    C96      C        0.28260    0.87140    0.61853    1.000
    C97      C        0.50700    0.90730    0.75861    1.000
    C98      C        0.55440    0.97690    0.82206    1.000
    C99      C        0.47440    0.95990    0.87178    1.000
    C100     C        0.62120    0.09820    0.93871    1.000
    C101     C        0.70620    0.11830    0.89182    1.000
    C102     C        0.67200    0.05740    0.83258    1.000
    N1       N        0.29407    0.03130    0.92763    1.000
    N2       N        0.38290    0.22430    0.78341    1.000
    N3       N        0.42690    0.38480    0.62859    1.000
    N4       N        0.49340    0.51344    0.40397    1.000
    N5       N        0.73723    0.70593    0.26096    1.000
    N6       N        0.84140    0.61710    0.11674    1.000
    N7       N        0.95790    0.57310    0.96192    1.000
    N8       N        0.02004    0.50660    0.73730    1.000
    N9       N        0.96870    0.26277    0.59430    1.000
    N10      N        0.77570    0.15860    0.45008    1.000
    N11      N        0.61520    0.04210    0.29526    1.000
    N12      N        0.48656    0.97996    0.07064    1.000
    N13      N        0.26277    0.96870    0.07237    1.000
    N14      N        0.15860    0.77570    0.21659    1.000
    N15      N        0.04210    0.61520    0.37141    1.000
    N16      N        0.97996    0.48656    0.59603    1.000
    N17      N        0.03130    0.29407    0.73904    1.000
    N18      N        0.22430    0.38290    0.88326    1.000
    N19      N        0.38480    0.42690    0.03808    1.000
    N20      N        0.51344    0.49340    0.26270    1.000
    N21      N        0.70593    0.73723    0.40570    1.000
    N22      N        0.61710    0.84140    0.54992    1.000
    N23      N        0.57310    0.95790    0.70474    1.000
    N24      N        0.50660    0.02004    0.92936    1.000
    O1       O        0.25534    0.22294    0.70668    1.000
    O2       O        0.58580    0.39902    0.57578    1.000
    O3       O        0.96760    0.74466    0.04001    1.000
    O4       O        0.81322    0.41420    0.90911    1.000
    O5       O        0.77706    0.03240    0.37335    1.000
    O6       O        0.60098    0.18678    0.24245    1.000
    O7       O        0.03240    0.77706    0.29332    1.000
    O8       O        0.18678    0.60098    0.42422    1.000
    O9       O        0.22294    0.25534    0.95999    1.000
    O10      O        0.39902    0.58580    0.09089    1.000
    O11      O        0.74466    0.96760    0.62665    1.000
    O12      O        0.41420    0.81322    0.75755    1.000
