# CIF file generated by openbabel 3.1.0, see https://openbabel.org
data_I
_chemical_name_common 'XUBJAF_clean'
_cell_length_a 10.5441
_cell_length_b 10.5441
_cell_length_c 10.7774
_cell_angle_alpha 101.669
_cell_angle_beta 117.578
_cell_angle_gamma 108.667
_space_group_name_H-M_alt 'P 1'
_space_group_name_Hall 'P 1'
loop_
    _symmetry_equiv_pos_as_xyz
    x,y,z
loop_
    _atom_site_label
    _atom_site_type_symbol
    _atom_site_fract_x
    _atom_site_fract_y
    _atom_site_fract_z
    _atom_site_occupancy
    Eu1      Eu       0.91374    0.50116    0.12370    1.000
    Eu2      Eu       0.22294    0.93435    0.85643    1.000
    Eu3      Eu       0.12254    0.20996    0.62370    1.000
    Eu4      Eu       0.42208    0.63349    0.35643    1.000
    H1       H        0.80580    0.80830    0.87170    1.000
    H2       H        0.87400    0.84800    0.04840    1.000
    H3       H        0.77690    0.04890    0.08660    1.000
    H4       H        0.62560    0.94890    0.91190    1.000
    H5       H        0.28660    0.02700    0.45180    1.000
    H6       H        0.41140    0.96310    0.52090    1.000
    H7       H        0.56340    0.06590    0.37170    1.000
    H8       H        0.70040    0.17440    0.54840    1.000
    H9       H        0.53770    0.30970    0.58660    1.000
    H10      H        0.46300    0.28630    0.41190    1.000
    H11      H        0.92480    0.16520    0.95180    1.000
    H12      H        0.05780    0.10950    0.02090    1.000
    C1       C        0.69190    0.64190    0.90700    1.000
    C2       C        0.83800    0.77060    0.95220    1.000
    C3       C        0.98200    0.75280    0.97800    1.000
    C4       C        0.17190    0.79840    0.36130    1.000
    C5       C        0.63040    0.14440    0.00300    1.000
    C6       C        0.65850    0.01150    0.01440    1.000
    C7       C        0.56860    0.91060    0.06820    1.000
    C8       C        0.27390    0.95200    0.61390    1.000
    C9       C        0.30120    0.94960    0.48640    1.000
    C10      C        0.76510    0.21510    0.40700    1.000
    C11      C        0.68160    0.11420    0.45220    1.000
    C12      C        0.72520    0.99600    0.47800    1.000
    C13      C        0.06290    0.18940    0.86130    1.000
    C14      C        0.35860    0.37260    0.50300    1.000
    C15      C        0.50290    0.35590    0.51440    1.000
    C16      C        0.65760    0.49960    0.56820    1.000
    C17      C        0.16190    0.34000    0.11390    1.000
    C18      C        0.03680    0.18520    0.98640    1.000
    O1       O        0.70850    0.54940    0.96830    1.000
    O2       O        0.55610    0.62890    0.81220    1.000
    O3       O        0.01580    0.66250    0.02550    1.000
    O4       O        0.07090    0.83830    0.94200    1.000
    O5       O        0.21210    0.70130    0.32860    1.000
    O6       O        0.02810    0.76780    0.29610    1.000
    O7       O        0.48900    0.12670    0.95130    1.000
    O8       O        0.74300    0.25060    0.03200    1.000
    O9       O        0.42290    0.87120    0.01190    1.000
    O10      O        0.64840    0.87180    0.16440    1.000
    O11      O        0.21640    0.02780    0.64860    1.000
    O12      O        0.30530    0.86590    0.67860    1.000
    O13      O        0.91890    0.25980    0.46830    1.000
    O14      O        0.68330    0.25610    0.31220    1.000
    O15      O        0.86300    0.00970    0.52550    1.000
    O16      O        0.60370    0.87110    0.44200    1.000
    O17      O        0.12730    0.11650    0.82860    1.000
    O18      O        0.02830    0.26800    0.79610    1.000
    O19      O        0.32460    0.46230    0.45130    1.000
    O20      O        0.28140    0.28900    0.53200    1.000
    O21      O        0.64070    0.58900    0.51190    1.000
    O22      O        0.79260    0.51600    0.66440    1.000
    O23      O        0.12080    0.43220    0.14860    1.000
    O24      O        0.31270    0.37330    0.17860    1.000
