# CIF file generated by openbabel 3.1.0, see https://openbabel.org
data_I
_chemical_name_common 'image0'
_cell_length_a 17.4301
_cell_length_b 26.27
_cell_length_c 15.4596
_cell_angle_alpha 90
_cell_angle_beta 113.498
_cell_angle_gamma 90
_space_group_name_H-M_alt 'P 1'
_space_group_name_Hall 'P 1'
loop_
    _symmetry_equiv_pos_as_xyz
    x,y,z
loop_
    _atom_site_label
    _atom_site_type_symbol
    _atom_site_fract_x
    _atom_site_fract_y
    _atom_site_fract_z
    _atom_site_occupancy
    U1       U        0.14958    0.73791    0.58417    1.000
    Zn1      Zn       0.26599    0.46999    0.50064    1.000
    N1       N        0.38990    0.44385    0.56350    1.000
    N2       N        0.33640    0.53793    0.56410    1.000
    C1       C        0.14150    0.68650    0.74100    1.000
    N3       N        0.20110    0.59796    0.94630    1.000
    C2       C        0.14210    0.66197    0.82810    1.000
    N4       N        0.21560    0.54772    0.09920    1.000
    C3       C        0.47170    0.57449    0.61840    1.000
    H1       H        0.52950    0.57060    0.64280    1.000
    C4       C        0.19290    0.61987    0.86500    1.000
    H2       H        0.22250    0.60640    0.83180    1.000
    C5       C        0.49290    0.37923    0.59310    1.000
    C6       C        0.30770    0.67838    0.55260    1.000
    C7       C        0.17410    0.59220    0.08540    1.000
    C8       C        0.43570    0.62336    0.60430    1.000
    H3       H        0.46910    0.65230    0.61640    1.000
    C9       C        0.30280    0.58374    0.55340    1.000
    H4       H        0.24500    0.58670    0.53230    1.000
    C10      C        0.45080    0.47934    0.59980    1.000
    C11      C        0.42030    0.53277    0.59570    1.000
    C12      C        0.41120    0.39543    0.56080    1.000
    H5       H        0.36890    0.37140    0.53590    1.000
    C13      C        0.35080    0.62742    0.57260    1.000
    C14      C        0.14810    0.61150    0.15220    1.000
    H6       H        0.11780    0.64170    0.14120    1.000
    C15      C        0.55610    0.41530    0.63010    1.000
    H7       H        0.61200    0.40580    0.65230    1.000
    C16      C        0.15870    0.61780    0.99460    1.000
    C17      C        0.20970    0.54070    0.25100    1.000
    C18      C        0.16790    0.58530    0.23580    1.000
    H8       H        0.15220    0.59850    0.28220    1.000
    C19      C        0.53370    0.46600    0.63330    1.000
    H9       H        0.57490    0.49080    0.65800    1.000
    C20      C        0.23270    0.52269    0.18040    1.000
    H10      H        0.26120    0.49190    0.18970    1.000
    C21      C        0.23240    0.51040    0.34000    1.000
    C22      C        0.10540    0.65850    0.96140    1.000
    H11      H        0.07470    0.67060    0.99440    1.000
    C23      C        0.09850    0.68120    0.87780    1.000
    H12      H        0.06440    0.70950    0.85530    1.000
    C24      C        0.51030    0.32390    0.58190    1.000
    O1       O        0.23250    0.67925    0.54300    1.000
    O2       O        0.34850    0.71646    0.54580    1.000
    O3       O        0.29240    0.47995    0.36100    1.000
    O4       O        0.10350    0.72842    0.71440    1.000
    O5       O        0.17770    0.66566    0.69480    1.000
    O6       O        0.19280    0.51738    0.39100    1.000
    O7       O        0.58530    0.31414    0.59500    1.000
    O8       O        0.45490    0.29325    0.56410    1.000
    U2       U        0.64958    0.23791    0.58417    1.000
    Zn2      Zn       0.76599    0.96999    0.50064    1.000
    N5       N        0.88990    0.94385    0.56350    1.000
    N6       N        0.83640    0.03793    0.56410    1.000
    C25      C        0.64150    0.18650    0.74100    1.000
    N7       N        0.70110    0.09796    0.94630    1.000
    C26      C        0.64210    0.16197    0.82810    1.000
    N8       N        0.71560    0.04772    0.09920    1.000
    C27      C        0.97170    0.07449    0.61840    1.000
    H13      H        0.02950    0.07060    0.64280    1.000
    C28      C        0.69290    0.11987    0.86500    1.000
    H14      H        0.72250    0.10640    0.83180    1.000
    C29      C        0.99290    0.87923    0.59310    1.000
    C30      C        0.80770    0.17838    0.55260    1.000
    C31      C        0.67410    0.09220    0.08540    1.000
    C32      C        0.93570    0.12336    0.60430    1.000
    H15      H        0.96910    0.15230    0.61640    1.000
    C33      C        0.80280    0.08374    0.55340    1.000
    H16      H        0.74500    0.08670    0.53230    1.000
    C34      C        0.95080    0.97934    0.59980    1.000
    C35      C        0.92030    0.03277    0.59570    1.000
    C36      C        0.91120    0.89543    0.56080    1.000
    H17      H        0.86890    0.87140    0.53590    1.000
    C37      C        0.85080    0.12742    0.57260    1.000
    C38      C        0.64810    0.11150    0.15220    1.000
    H18      H        0.61780    0.14170    0.14120    1.000
    C39      C        0.05610    0.91530    0.63010    1.000
    H19      H        0.11200    0.90580    0.65230    1.000
    C40      C        0.65870    0.11780    0.99460    1.000
    C41      C        0.70970    0.04070    0.25100    1.000
    C42      C        0.66790    0.08530    0.23580    1.000
    H20      H        0.65220    0.09850    0.28220    1.000
    C43      C        0.03370    0.96600    0.63330    1.000
    H21      H        0.07490    0.99080    0.65800    1.000
    C44      C        0.73270    0.02269    0.18040    1.000
    H22      H        0.76120    0.99190    0.18970    1.000
    C45      C        0.73240    0.01040    0.34000    1.000
    C46      C        0.60540    0.15850    0.96140    1.000
    H23      H        0.57470    0.17060    0.99440    1.000
    C47      C        0.59850    0.18120    0.87780    1.000
    H24      H        0.56440    0.20950    0.85530    1.000
    C48      C        0.01030    0.82390    0.58190    1.000
    O9       O        0.73250    0.17925    0.54300    1.000
    O10      O        0.84850    0.21646    0.54580    1.000
    O11      O        0.79240    0.97995    0.36100    1.000
    O12      O        0.60350    0.22842    0.71440    1.000
    O13      O        0.67770    0.16566    0.69480    1.000
    O14      O        0.69280    0.01738    0.39100    1.000
    O15      O        0.08530    0.81414    0.59500    1.000
    O16      O        0.95490    0.79325    0.56410    1.000
    U3       U        0.85042    0.73791    0.91583    1.000
    Zn3      Zn       0.73401    0.46999    0.99936    1.000
    N9       N        0.61010    0.44385    0.93650    1.000
    N10      N        0.66360    0.53793    0.93590    1.000
    C49      C        0.85850    0.68650    0.75900    1.000
    N11      N        0.79890    0.59796    0.55370    1.000
    C50      C        0.85790    0.66197    0.67190    1.000
    N12      N        0.78440    0.54772    0.40080    1.000
    C51      C        0.52830    0.57449    0.88160    1.000
    H25      H        0.47050    0.57060    0.85720    1.000
    C52      C        0.80710    0.61987    0.63500    1.000
    H26      H        0.77750    0.60640    0.66820    1.000
    C53      C        0.50710    0.37923    0.90690    1.000
    C54      C        0.69230    0.67838    0.94740    1.000
    C55      C        0.82590    0.59220    0.41460    1.000
    C56      C        0.56430    0.62336    0.89570    1.000
    H27      H        0.53090    0.65230    0.88360    1.000
    C57      C        0.69720    0.58374    0.94660    1.000
    H28      H        0.75500    0.58670    0.96770    1.000
    C58      C        0.54920    0.47934    0.90020    1.000
    C59      C        0.57970    0.53277    0.90430    1.000
    C60      C        0.58880    0.39543    0.93920    1.000
    H29      H        0.63110    0.37140    0.96410    1.000
    C61      C        0.64920    0.62742    0.92740    1.000
    C62      C        0.85190    0.61150    0.34780    1.000
    H30      H        0.88220    0.64170    0.35880    1.000
    C63      C        0.44390    0.41530    0.86990    1.000
    H31      H        0.38800    0.40580    0.84770    1.000
    C64      C        0.84130    0.61780    0.50540    1.000
    C65      C        0.79030    0.54070    0.24900    1.000
    C66      C        0.83210    0.58530    0.26420    1.000
    H32      H        0.84780    0.59850    0.21780    1.000
    C67      C        0.46630    0.46600    0.86670    1.000
    H33      H        0.42510    0.49080    0.84200    1.000
    C68      C        0.76730    0.52269    0.31960    1.000
    H34      H        0.73880    0.49190    0.31030    1.000
    C69      C        0.76760    0.51040    0.16000    1.000
    C70      C        0.89460    0.65850    0.53860    1.000
    H35      H        0.92530    0.67060    0.50560    1.000
    C71      C        0.90150    0.68120    0.62220    1.000
    H36      H        0.93560    0.70950    0.64470    1.000
    C72      C        0.48970    0.32390    0.91810    1.000
    O17      O        0.76750    0.67925    0.95700    1.000
    O18      O        0.65150    0.71646    0.95420    1.000
    O19      O        0.70760    0.47995    0.13900    1.000
    O20      O        0.89650    0.72842    0.78560    1.000
    O21      O        0.82230    0.66566    0.80520    1.000
    O22      O        0.80720    0.51738    0.10900    1.000
    O23      O        0.41470    0.31414    0.90500    1.000
    O24      O        0.54510    0.29325    0.93590    1.000
    U4       U        0.35042    0.23791    0.91583    1.000
    Zn4      Zn       0.23401    0.96999    0.99936    1.000
    N13      N        0.11010    0.94385    0.93650    1.000
    N14      N        0.16360    0.03793    0.93590    1.000
    C73      C        0.35850    0.18650    0.75900    1.000
    N15      N        0.29890    0.09796    0.55370    1.000
    C74      C        0.35790    0.16197    0.67190    1.000
    N16      N        0.28440    0.04772    0.40080    1.000
    C75      C        0.02830    0.07449    0.88160    1.000
    H37      H        0.97050    0.07060    0.85720    1.000
    C76      C        0.30710    0.11987    0.63500    1.000
    H38      H        0.27750    0.10640    0.66820    1.000
    C77      C        0.00710    0.87923    0.90690    1.000
    C78      C        0.19230    0.17838    0.94740    1.000
    C79      C        0.32590    0.09220    0.41460    1.000
    C80      C        0.06430    0.12336    0.89570    1.000
    H39      H        0.03090    0.15230    0.88360    1.000
    C81      C        0.19720    0.08374    0.94660    1.000
    H40      H        0.25500    0.08670    0.96770    1.000
    C82      C        0.04920    0.97934    0.90020    1.000
    C83      C        0.07970    0.03277    0.90430    1.000
    C84      C        0.08880    0.89543    0.93920    1.000
    H41      H        0.13110    0.87140    0.96410    1.000
    C85      C        0.14920    0.12742    0.92740    1.000
    C86      C        0.35190    0.11150    0.34780    1.000
    H42      H        0.38220    0.14170    0.35880    1.000
    C87      C        0.94390    0.91530    0.86990    1.000
    H43      H        0.88800    0.90580    0.84770    1.000
    C88      C        0.34130    0.11780    0.50540    1.000
    C89      C        0.29030    0.04070    0.24900    1.000
    C90      C        0.33210    0.08530    0.26420    1.000
    H44      H        0.34780    0.09850    0.21780    1.000
    C91      C        0.96630    0.96600    0.86670    1.000
    H45      H        0.92510    0.99080    0.84200    1.000
    C92      C        0.26730    0.02269    0.31960    1.000
    H46      H        0.23880    0.99190    0.31030    1.000
    C93      C        0.26760    0.01040    0.16000    1.000
    C94      C        0.39460    0.15850    0.53860    1.000
    H47      H        0.42530    0.17060    0.50560    1.000
    C95      C        0.40150    0.18120    0.62220    1.000
    H48      H        0.43560    0.20950    0.64470    1.000
    C96      C        0.98970    0.82390    0.91810    1.000
    O25      O        0.26750    0.17925    0.95700    1.000
    O26      O        0.15150    0.21646    0.95420    1.000
    O27      O        0.20760    0.97995    0.13900    1.000
    O28      O        0.39650    0.22842    0.78560    1.000
    O29      O        0.32230    0.16566    0.80520    1.000
    O30      O        0.30720    0.01738    0.10900    1.000
    O31      O        0.91470    0.81414    0.90500    1.000
    O32      O        0.04510    0.79325    0.93590    1.000
    U5       U        0.85042    0.26209    0.41583    1.000
    Zn5      Zn       0.73401    0.53001    0.49936    1.000
    N17      N        0.61010    0.55615    0.43650    1.000
    N18      N        0.66360    0.46207    0.43590    1.000
    C97      C        0.85850    0.31350    0.25900    1.000
    N19      N        0.79890    0.40204    0.05370    1.000
    C98      C        0.85790    0.33803    0.17190    1.000
    N20      N        0.78440    0.45228    0.90080    1.000
    C99      C        0.52830    0.42551    0.38160    1.000
    H49      H        0.47050    0.42940    0.35720    1.000
    C100     C        0.80710    0.38013    0.13500    1.000
    H50      H        0.77750    0.39360    0.16820    1.000
    C101     C        0.50710    0.62077    0.40690    1.000
    C102     C        0.69230    0.32162    0.44740    1.000
    C103     C        0.82590    0.40780    0.91460    1.000
    C104     C        0.56430    0.37664    0.39570    1.000
    H51      H        0.53090    0.34770    0.38360    1.000
    C105     C        0.69720    0.41626    0.44660    1.000
    H52      H        0.75500    0.41330    0.46770    1.000
    C106     C        0.54920    0.52066    0.40020    1.000
    C107     C        0.57970    0.46723    0.40430    1.000
    C108     C        0.58880    0.60457    0.43920    1.000
    H53      H        0.63110    0.62860    0.46410    1.000
    C109     C        0.64920    0.37258    0.42740    1.000
    C110     C        0.85190    0.38850    0.84780    1.000
    H54      H        0.88220    0.35830    0.85880    1.000
    C111     C        0.44390    0.58470    0.36990    1.000
    H55      H        0.38800    0.59420    0.34770    1.000
    C112     C        0.84130    0.38220    0.00540    1.000
    C113     C        0.79030    0.45930    0.74900    1.000
    C114     C        0.83210    0.41470    0.76420    1.000
    H56      H        0.84780    0.40150    0.71780    1.000
    C115     C        0.46630    0.53400    0.36670    1.000
    H57      H        0.42510    0.50920    0.34200    1.000
    C116     C        0.76730    0.47731    0.81960    1.000
    H58      H        0.73880    0.50810    0.81030    1.000
    C117     C        0.76760    0.48960    0.66000    1.000
    C118     C        0.89460    0.34150    0.03860    1.000
    H59      H        0.92530    0.32940    0.00560    1.000
    C119     C        0.90150    0.31880    0.12220    1.000
    H60      H        0.93560    0.29050    0.14470    1.000
    C120     C        0.48970    0.67610    0.41810    1.000
    O33      O        0.76750    0.32075    0.45700    1.000
    O34      O        0.65150    0.28354    0.45420    1.000
    O35      O        0.70760    0.52005    0.63900    1.000
    O36      O        0.89650    0.27158    0.28560    1.000
    O37      O        0.82230    0.33434    0.30520    1.000
    O38      O        0.80720    0.48262    0.60900    1.000
    O39      O        0.41470    0.68586    0.40500    1.000
    O40      O        0.54510    0.70675    0.43590    1.000
    U6       U        0.35042    0.76209    0.41583    1.000
    Zn6      Zn       0.23401    0.03001    0.49936    1.000
    N21      N        0.11010    0.05615    0.43650    1.000
    N22      N        0.16360    0.96207    0.43590    1.000
    C121     C        0.35850    0.81350    0.25900    1.000
    N23      N        0.29890    0.90204    0.05370    1.000
    C122     C        0.35790    0.83803    0.17190    1.000
    N24      N        0.28440    0.95228    0.90080    1.000
    C123     C        0.02830    0.92551    0.38160    1.000
    H61      H        0.97050    0.92940    0.35720    1.000
    C124     C        0.30710    0.88013    0.13500    1.000
    H62      H        0.27750    0.89360    0.16820    1.000
    C125     C        0.00710    0.12077    0.40690    1.000
    C126     C        0.19230    0.82162    0.44740    1.000
    C127     C        0.32590    0.90780    0.91460    1.000
    C128     C        0.06430    0.87664    0.39570    1.000
    H63      H        0.03090    0.84770    0.38360    1.000
    C129     C        0.19720    0.91626    0.44660    1.000
    H64      H        0.25500    0.91330    0.46770    1.000
    C130     C        0.04920    0.02066    0.40020    1.000
    C131     C        0.07970    0.96723    0.40430    1.000
    C132     C        0.08880    0.10457    0.43920    1.000
    H65      H        0.13110    0.12860    0.46410    1.000
    C133     C        0.14920    0.87258    0.42740    1.000
    C134     C        0.35190    0.88850    0.84780    1.000
    H66      H        0.38220    0.85830    0.85880    1.000
    C135     C        0.94390    0.08470    0.36990    1.000
    H67      H        0.88800    0.09420    0.34770    1.000
    C136     C        0.34130    0.88220    0.00540    1.000
    C137     C        0.29030    0.95930    0.74900    1.000
    C138     C        0.33210    0.91470    0.76420    1.000
    H68      H        0.34780    0.90150    0.71780    1.000
    C139     C        0.96630    0.03400    0.36670    1.000
    H69      H        0.92510    0.00920    0.34200    1.000
    C140     C        0.26730    0.97731    0.81960    1.000
    H70      H        0.23880    0.00810    0.81030    1.000
    C141     C        0.26760    0.98960    0.66000    1.000
    C142     C        0.39460    0.84150    0.03860    1.000
    H71      H        0.42530    0.82940    0.00560    1.000
    C143     C        0.40150    0.81880    0.12220    1.000
    H72      H        0.43560    0.79050    0.14470    1.000
    C144     C        0.98970    0.17610    0.41810    1.000
    O41      O        0.26750    0.82075    0.45700    1.000
    O42      O        0.15150    0.78354    0.45420    1.000
    O43      O        0.20760    0.02005    0.63900    1.000
    O44      O        0.39650    0.77158    0.28560    1.000
    O45      O        0.32230    0.83434    0.30520    1.000
    O46      O        0.30720    0.98262    0.60900    1.000
    O47      O        0.91470    0.18586    0.40500    1.000
    O48      O        0.04510    0.20675    0.43590    1.000
    U7       U        0.14958    0.26209    0.08417    1.000
    Zn7      Zn       0.26599    0.53001    0.00064    1.000
    N25      N        0.38990    0.55615    0.06350    1.000
    N26      N        0.33640    0.46207    0.06410    1.000
    C145     C        0.14150    0.31350    0.24100    1.000
    N27      N        0.20110    0.40204    0.44630    1.000
    C146     C        0.14210    0.33803    0.32810    1.000
    N28      N        0.21560    0.45228    0.59920    1.000
    C147     C        0.47170    0.42551    0.11840    1.000
    H73      H        0.52950    0.42940    0.14280    1.000
    C148     C        0.19290    0.38013    0.36500    1.000
    H74      H        0.22250    0.39360    0.33180    1.000
    C149     C        0.49290    0.62077    0.09310    1.000
    C150     C        0.30770    0.32162    0.05260    1.000
    C151     C        0.17410    0.40780    0.58540    1.000
    C152     C        0.43570    0.37664    0.10430    1.000
    H75      H        0.46910    0.34770    0.11640    1.000
    C153     C        0.30280    0.41626    0.05340    1.000
    H76      H        0.24500    0.41330    0.03230    1.000
    C154     C        0.45080    0.52066    0.09980    1.000
    C155     C        0.42030    0.46723    0.09570    1.000
    C156     C        0.41120    0.60457    0.06080    1.000
    H77      H        0.36890    0.62860    0.03590    1.000
    C157     C        0.35080    0.37258    0.07260    1.000
    C158     C        0.14810    0.38850    0.65220    1.000
    H78      H        0.11780    0.35830    0.64120    1.000
    C159     C        0.55610    0.58470    0.13010    1.000
    H79      H        0.61200    0.59420    0.15230    1.000
    C160     C        0.15870    0.38220    0.49460    1.000
    C161     C        0.20970    0.45930    0.75100    1.000
    C162     C        0.16790    0.41470    0.73580    1.000
    H80      H        0.15220    0.40150    0.78220    1.000
    C163     C        0.53370    0.53400    0.13330    1.000
    H81      H        0.57490    0.50920    0.15800    1.000
    C164     C        0.23270    0.47731    0.68040    1.000
    H82      H        0.26120    0.50810    0.68970    1.000
    C165     C        0.23240    0.48960    0.84000    1.000
    C166     C        0.10540    0.34150    0.46140    1.000
    H83      H        0.07470    0.32940    0.49440    1.000
    C167     C        0.09850    0.31880    0.37780    1.000
    H84      H        0.06440    0.29050    0.35530    1.000
    C168     C        0.51030    0.67610    0.08190    1.000
    O49      O        0.23250    0.32075    0.04300    1.000
    O50      O        0.34850    0.28354    0.04580    1.000
    O51      O        0.29240    0.52005    0.86100    1.000
    O52      O        0.10350    0.27158    0.21440    1.000
    O53      O        0.17770    0.33434    0.19480    1.000
    O54      O        0.19280    0.48262    0.89100    1.000
    O55      O        0.58530    0.68586    0.09500    1.000
    O56      O        0.45490    0.70675    0.06410    1.000
    U8       U        0.64958    0.76209    0.08417    1.000
    Zn8      Zn       0.76599    0.03001    0.00064    1.000
    N29      N        0.88990    0.05615    0.06350    1.000
    N30      N        0.83640    0.96207    0.06410    1.000
    C169     C        0.64150    0.81350    0.24100    1.000
    N31      N        0.70110    0.90204    0.44630    1.000
    C170     C        0.64210    0.83803    0.32810    1.000
    N32      N        0.71560    0.95228    0.59920    1.000
    C171     C        0.97170    0.92551    0.11840    1.000
    H85      H        0.02950    0.92940    0.14280    1.000
    C172     C        0.69290    0.88013    0.36500    1.000
    H86      H        0.72250    0.89360    0.33180    1.000
    C173     C        0.99290    0.12077    0.09310    1.000
    C174     C        0.80770    0.82162    0.05260    1.000
    C175     C        0.67410    0.90780    0.58540    1.000
    C176     C        0.93570    0.87664    0.10430    1.000
    H87      H        0.96910    0.84770    0.11640    1.000
    C177     C        0.80280    0.91626    0.05340    1.000
    H88      H        0.74500    0.91330    0.03230    1.000
    C178     C        0.95080    0.02066    0.09980    1.000
    C179     C        0.92030    0.96723    0.09570    1.000
    C180     C        0.91120    0.10457    0.06080    1.000
    H89      H        0.86890    0.12860    0.03590    1.000
    C181     C        0.85080    0.87258    0.07260    1.000
    C182     C        0.64810    0.88850    0.65220    1.000
    H90      H        0.61780    0.85830    0.64120    1.000
    C183     C        0.05610    0.08470    0.13010    1.000
    H91      H        0.11200    0.09420    0.15230    1.000
    C184     C        0.65870    0.88220    0.49460    1.000
    C185     C        0.70970    0.95930    0.75100    1.000
    C186     C        0.66790    0.91470    0.73580    1.000
    H92      H        0.65220    0.90150    0.78220    1.000
    C187     C        0.03370    0.03400    0.13330    1.000
    H93      H        0.07490    0.00920    0.15800    1.000
    C188     C        0.73270    0.97731    0.68040    1.000
    H94      H        0.76120    0.00810    0.68970    1.000
    C189     C        0.73240    0.98960    0.84000    1.000
    C190     C        0.60540    0.84150    0.46140    1.000
    H95      H        0.57470    0.82940    0.49440    1.000
    C191     C        0.59850    0.81880    0.37780    1.000
    H96      H        0.56440    0.79050    0.35530    1.000
    C192     C        0.01030    0.17610    0.08190    1.000
    O57      O        0.73250    0.82075    0.04300    1.000
    O58      O        0.84850    0.78354    0.04580    1.000
    O59      O        0.79240    0.02005    0.86100    1.000
    O60      O        0.60350    0.77158    0.21440    1.000
    O61      O        0.67770    0.83434    0.19480    1.000
    O62      O        0.69280    0.98262    0.89100    1.000
    O63      O        0.08530    0.18586    0.09500    1.000
    O64      O        0.95490    0.20675    0.06410    1.000
