# CIF file generated by openbabel 3.1.0, see https://openbabel.org
data_I
_chemical_name_common 'image0'
_cell_length_a 33.6889
_cell_length_b 14.6464
_cell_length_c 31.9521
_cell_angle_alpha 90
_cell_angle_beta 99.1492
_cell_angle_gamma 90
_space_group_name_H-M_alt 'P 1'
_space_group_name_Hall 'P 1'
loop_
    _symmetry_equiv_pos_as_xyz
    x,y,z
loop_
    _atom_site_label
    _atom_site_type_symbol
    _atom_site_fract_x
    _atom_site_fract_y
    _atom_site_fract_z
    _atom_site_occupancy
    I1       I        0.76451    0.22715    0.70710    1.000
    I2       I        0.59939    0.26242    0.60588    1.000
    I3       I        0.65306    0.36741    0.49533    1.000
    I4       I        0.87511    0.16038    0.79876    1.000
    I5       I        0.85997    0.26725    0.93928    1.000
    I6       I        0.97068    0.32364    0.87748    1.000
    Zn1      Zn       0.82932    0.13743    0.72841    1.000
    Zn2      Zn       0.62675    0.39018    0.56414    1.000
    Zn3      Zn       0.90722    0.36932    0.90581    1.000
    N1       N        0.81861    0.99850    0.72174    1.000
    N2       N        0.92171    0.47830    0.94692    1.000
    N3       N        0.67050    0.45500    0.60651    1.000
    N4       N        0.97583    0.76570    0.02142    1.000
    N5       N        0.76894    0.67700    0.68688    1.000
    C1       C        0.78270    0.87100    0.68840    1.000
    H1       H        0.76210    0.84820    0.66710    1.000
    N6       N        0.92361    0.71670    0.05823    1.000
    N7       N        0.87294    0.43550    0.85580    1.000
    N8       N        0.82132    0.66520    0.74569    1.000
    C2       C        0.96650    0.59680    0.97610    1.000
    H2       H        0.99180    0.62610    0.97780    1.000
    C3       C        0.68240    0.53990    0.59870    1.000
    H3       H        0.67030    0.56920    0.57330    1.000
    C4       C        0.84160    0.94110    0.74730    1.000
    H4       H        0.86260    0.96540    0.76760    1.000
    C5       C        0.72980    0.54330    0.66250    1.000
    C6       C        0.82340    0.43680    0.79400    1.000
    H5       H        0.80320    0.40510    0.77550    1.000
    C7       C        0.80610    0.81200    0.71530    1.000
    C8       C        0.76158    0.58790    0.69240    1.000
    C9       C        0.84360    0.39420    0.82920    1.000
    H6       H        0.83650    0.33330    0.83510    1.000
    C10      C        0.83610    0.84800    0.74550    1.000
    H7       H        0.85270    0.80900    0.76460    1.000
    C11      C        0.79843    0.71170    0.71500    1.000
    C12      C        0.81050    0.57800    0.74910    1.000
    C13      C        0.93835    0.62870    0.99960    1.000
    C14      C        0.71740    0.45610    0.67060    1.000
    H8       H        0.72940    0.42480    0.69550    1.000
    C15      C        0.83270    0.52650    0.78570    1.000
    C16      C        0.95730    0.52130    0.95010    1.000
    H9       H        0.97680    0.49940    0.93410    1.000
    C17      C        0.93030    0.79250    0.08140    1.000
    C18      C        0.68760    0.41450    0.64220    1.000
    H10      H        0.67890    0.35500    0.64850    1.000
    C19      C        0.94646    0.70810    0.02800    1.000
    C20      C        0.01846    0.89150    0.05083    1.000
    C21      C        0.03718    0.90580    0.01563    1.000
    H11      H        0.02770    0.87520    0.98980    1.000
    C22      C        0.06973    0.96510    0.01829    1.000
    H12      H        0.08250    0.97490    0.99420    1.000
    N9       N        0.08355    0.00990    0.05613    1.000
    C23      C        0.06480    0.99560    0.09133    1.000
    H13      H        0.07430    0.02620    0.11720    1.000
    C24      C        0.03230    0.93640    0.08868    1.000
    H14      H        0.01950    0.92650    0.11270    1.000
    C25      C        0.89440    0.50900    0.96970    1.000
    H15      H        0.86920    0.47890    0.96730    1.000
    C26      C        0.90180    0.58320    0.99660    1.000
    H16      H        0.88210    0.60290    0.01280    1.000
    C27      C        0.71120    0.58650    0.62570    1.000
    H17      H        0.71830    0.64720    0.61940    1.000
    C28      C        0.86300    0.56950    0.81290    1.000
    H18      H        0.87030    0.63090    0.80810    1.000
    N10      N        0.78064    0.53610    0.72389    1.000
    C29      C        0.88240    0.52120    0.84710    1.000
    H19      H        0.90370    0.55030    0.86540    1.000
    C30      C        0.78950    0.96380    0.69270    1.000
    H20      H        0.77290    0.00440    0.67440    1.000
    N11      N        0.95834    0.85430    0.07760    1.000
    C31      C        0.98120    0.83570    0.04850    1.000
    C32      C        0.87980    0.74440    0.12610    1.000
    H21      H        0.87710    0.68700    0.11210    1.000
    C33      C        0.90510    0.80880    0.11460    1.000
    C34      C        0.85840    0.76300    0.15810    1.000
    H22      H        0.84100    0.71710    0.16580    1.000
    C35      C        0.90510    0.89280    0.13370    1.000
    H23      H        0.92060    0.94140    0.12490    1.000
    C36      C        0.88270    0.90660    0.16560    1.000
    H24      H        0.88320    0.96490    0.17870    1.000
    N12      N        0.86046    0.84080    0.17870    1.000
    I7       I        0.26451    0.72715    0.70710    1.000
    I8       I        0.09939    0.76242    0.60588    1.000
    I9       I        0.15306    0.86741    0.49533    1.000
    I10      I        0.37511    0.66038    0.79876    1.000
    I11      I        0.35997    0.76725    0.93928    1.000
    I12      I        0.47068    0.82364    0.87748    1.000
    Zn4      Zn       0.32932    0.63743    0.72841    1.000
    Zn5      Zn       0.12675    0.89018    0.56414    1.000
    Zn6      Zn       0.40722    0.86932    0.90581    1.000
    N13      N        0.31861    0.49850    0.72174    1.000
    N14      N        0.42171    0.97830    0.94692    1.000
    N15      N        0.17050    0.95500    0.60651    1.000
    N16      N        0.47583    0.26570    0.02142    1.000
    N17      N        0.26894    0.17700    0.68688    1.000
    C37      C        0.28270    0.37100    0.68840    1.000
    H25      H        0.26210    0.34820    0.66710    1.000
    N18      N        0.42361    0.21670    0.05823    1.000
    N19      N        0.37294    0.93550    0.85580    1.000
    N20      N        0.32132    0.16520    0.74569    1.000
    C38      C        0.46650    0.09680    0.97610    1.000
    H26      H        0.49180    0.12610    0.97780    1.000
    C39      C        0.18240    0.03990    0.59870    1.000
    H27      H        0.17030    0.06920    0.57330    1.000
    C40      C        0.34160    0.44110    0.74730    1.000
    H28      H        0.36260    0.46540    0.76760    1.000
    C41      C        0.22980    0.04330    0.66250    1.000
    C42      C        0.32340    0.93680    0.79400    1.000
    H29      H        0.30320    0.90510    0.77550    1.000
    C43      C        0.30610    0.31200    0.71530    1.000
    C44      C        0.26158    0.08790    0.69240    1.000
    C45      C        0.34360    0.89420    0.82920    1.000
    H30      H        0.33650    0.83330    0.83510    1.000
    C46      C        0.33610    0.34800    0.74550    1.000
    H31      H        0.35270    0.30900    0.76460    1.000
    C47      C        0.29843    0.21170    0.71500    1.000
    C48      C        0.31050    0.07800    0.74910    1.000
    C49      C        0.43835    0.12870    0.99960    1.000
    C50      C        0.21740    0.95610    0.67060    1.000
    H32      H        0.22940    0.92480    0.69550    1.000
    C51      C        0.33270    0.02650    0.78570    1.000
    C52      C        0.45730    0.02130    0.95010    1.000
    H33      H        0.47680    0.99940    0.93410    1.000
    C53      C        0.43030    0.29250    0.08140    1.000
    C54      C        0.18760    0.91450    0.64220    1.000
    H34      H        0.17890    0.85500    0.64850    1.000
    C55      C        0.44646    0.20810    0.02800    1.000
    C56      C        0.51846    0.39150    0.05083    1.000
    C57      C        0.53718    0.40580    0.01563    1.000
    H35      H        0.52770    0.37520    0.98980    1.000
    C58      C        0.56973    0.46510    0.01829    1.000
    H36      H        0.58250    0.47490    0.99420    1.000
    N21      N        0.58355    0.50990    0.05613    1.000
    C59      C        0.56480    0.49560    0.09133    1.000
    H37      H        0.57430    0.52620    0.11720    1.000
    C60      C        0.53230    0.43640    0.08868    1.000
    H38      H        0.51950    0.42650    0.11270    1.000
    C61      C        0.39440    0.00900    0.96970    1.000
    H39      H        0.36920    0.97890    0.96730    1.000
    C62      C        0.40180    0.08320    0.99660    1.000
    H40      H        0.38210    0.10290    0.01280    1.000
    C63      C        0.21120    0.08650    0.62570    1.000
    H41      H        0.21830    0.14720    0.61940    1.000
    C64      C        0.36300    0.06950    0.81290    1.000
    H42      H        0.37030    0.13090    0.80810    1.000
    N22      N        0.28064    0.03610    0.72389    1.000
    C65      C        0.38240    0.02120    0.84710    1.000
    H43      H        0.40370    0.05030    0.86540    1.000
    C66      C        0.28950    0.46380    0.69270    1.000
    H44      H        0.27290    0.50440    0.67440    1.000
    N23      N        0.45834    0.35430    0.07760    1.000
    C67      C        0.48120    0.33570    0.04850    1.000
    C68      C        0.37980    0.24440    0.12610    1.000
    H45      H        0.37710    0.18700    0.11210    1.000
    C69      C        0.40510    0.30880    0.11460    1.000
    C70      C        0.35840    0.26300    0.15810    1.000
    H46      H        0.34100    0.21710    0.16580    1.000
    C71      C        0.40510    0.39280    0.13370    1.000
    H47      H        0.42060    0.44140    0.12490    1.000
    C72      C        0.38270    0.40660    0.16560    1.000
    H48      H        0.38320    0.46490    0.17870    1.000
    N24      N        0.36046    0.34080    0.17870    1.000
    I13      I        0.76451    0.77285    0.20710    1.000
    I14      I        0.59939    0.73758    0.10588    1.000
    I15      I        0.65306    0.63259    0.99533    1.000
    I16      I        0.87511    0.83962    0.29876    1.000
    I17      I        0.85997    0.73275    0.43928    1.000
    I18      I        0.97068    0.67636    0.37748    1.000
    Zn7      Zn       0.82932    0.86257    0.22841    1.000
    Zn8      Zn       0.62675    0.60982    0.06414    1.000
    Zn9      Zn       0.90722    0.63068    0.40581    1.000
    N25      N        0.81861    0.00150    0.22174    1.000
    N26      N        0.92171    0.52170    0.44692    1.000
    N27      N        0.67050    0.54500    0.10651    1.000
    N28      N        0.97583    0.23430    0.52142    1.000
    N29      N        0.76894    0.32300    0.18688    1.000
    C73      C        0.78270    0.12900    0.18840    1.000
    H49      H        0.76210    0.15180    0.16710    1.000
    N30      N        0.92361    0.28330    0.55823    1.000
    N31      N        0.87294    0.56450    0.35580    1.000
    N32      N        0.82132    0.33480    0.24569    1.000
    C74      C        0.96650    0.40320    0.47610    1.000
    H50      H        0.99180    0.37390    0.47780    1.000
    C75      C        0.68240    0.46010    0.09870    1.000
    H51      H        0.67030    0.43080    0.07330    1.000
    C76      C        0.84160    0.05890    0.24730    1.000
    H52      H        0.86260    0.03460    0.26760    1.000
    C77      C        0.72980    0.45670    0.16250    1.000
    C78      C        0.82340    0.56320    0.29400    1.000
    H53      H        0.80320    0.59490    0.27550    1.000
    C79      C        0.80610    0.18800    0.21530    1.000
    C80      C        0.76158    0.41210    0.19240    1.000
    C81      C        0.84360    0.60580    0.32920    1.000
    H54      H        0.83650    0.66670    0.33510    1.000
    C82      C        0.83610    0.15200    0.24550    1.000
    H55      H        0.85270    0.19100    0.26460    1.000
    C83      C        0.79843    0.28830    0.21500    1.000
    C84      C        0.81050    0.42200    0.24910    1.000
    C85      C        0.93835    0.37130    0.49960    1.000
    C86      C        0.71740    0.54390    0.17060    1.000
    H56      H        0.72940    0.57520    0.19550    1.000
    C87      C        0.83270    0.47350    0.28570    1.000
    C88      C        0.95730    0.47870    0.45010    1.000
    H57      H        0.97680    0.50060    0.43410    1.000
    C89      C        0.93030    0.20750    0.58140    1.000
    C90      C        0.68760    0.58550    0.14220    1.000
    H58      H        0.67890    0.64500    0.14850    1.000
    C91      C        0.94646    0.29190    0.52800    1.000
    C92      C        0.01846    0.10850    0.55083    1.000
    C93      C        0.03718    0.09420    0.51563    1.000
    H59      H        0.02770    0.12480    0.48980    1.000
    C94      C        0.06973    0.03490    0.51829    1.000
    H60      H        0.08250    0.02510    0.49420    1.000
    N33      N        0.08355    0.99010    0.55613    1.000
    C95      C        0.06480    0.00440    0.59133    1.000
    H61      H        0.07430    0.97380    0.61720    1.000
    C96      C        0.03230    0.06360    0.58868    1.000
    H62      H        0.01950    0.07350    0.61270    1.000
    C97      C        0.89440    0.49100    0.46970    1.000
    H63      H        0.86920    0.52110    0.46730    1.000
    C98      C        0.90180    0.41680    0.49660    1.000
    H64      H        0.88210    0.39710    0.51280    1.000
    C99      C        0.71120    0.41350    0.12570    1.000
    H65      H        0.71830    0.35280    0.11940    1.000
    C100     C        0.86300    0.43050    0.31290    1.000
    H66      H        0.87030    0.36910    0.30810    1.000
    N34      N        0.78064    0.46390    0.22389    1.000
    C101     C        0.88240    0.47880    0.34710    1.000
    H67      H        0.90370    0.44970    0.36540    1.000
    C102     C        0.78950    0.03620    0.19270    1.000
    H68      H        0.77290    0.99560    0.17440    1.000
    N35      N        0.95834    0.14570    0.57760    1.000
    C103     C        0.98120    0.16430    0.54850    1.000
    C104     C        0.87980    0.25560    0.62610    1.000
    H69      H        0.87710    0.31300    0.61210    1.000
    C105     C        0.90510    0.19120    0.61460    1.000
    C106     C        0.85840    0.23700    0.65810    1.000
    H70      H        0.84100    0.28290    0.66580    1.000
    C107     C        0.90510    0.10720    0.63370    1.000
    H71      H        0.92060    0.05860    0.62490    1.000
    C108     C        0.88270    0.09340    0.66560    1.000
    H72      H        0.88320    0.03510    0.67870    1.000
    N36      N        0.86046    0.15920    0.67870    1.000
    I19      I        0.26451    0.27285    0.20710    1.000
    I20      I        0.09939    0.23758    0.10588    1.000
    I21      I        0.15306    0.13259    0.99533    1.000
    I22      I        0.37511    0.33962    0.29876    1.000
    I23      I        0.35997    0.23275    0.43928    1.000
    I24      I        0.47068    0.17636    0.37748    1.000
    Zn10     Zn       0.32932    0.36257    0.22841    1.000
    Zn11     Zn       0.12675    0.10982    0.06414    1.000
    Zn12     Zn       0.40722    0.13068    0.40581    1.000
    N37      N        0.31861    0.50150    0.22174    1.000
    N38      N        0.42171    0.02170    0.44692    1.000
    N39      N        0.17050    0.04500    0.10651    1.000
    N40      N        0.47583    0.73430    0.52142    1.000
    N41      N        0.26894    0.82300    0.18688    1.000
    C109     C        0.28270    0.62900    0.18840    1.000
    H73      H        0.26210    0.65180    0.16710    1.000
    N42      N        0.42361    0.78330    0.55823    1.000
    N43      N        0.37294    0.06450    0.35580    1.000
    N44      N        0.32132    0.83480    0.24569    1.000
    C110     C        0.46650    0.90320    0.47610    1.000
    H74      H        0.49180    0.87390    0.47780    1.000
    C111     C        0.18240    0.96010    0.09870    1.000
    H75      H        0.17030    0.93080    0.07330    1.000
    C112     C        0.34160    0.55890    0.24730    1.000
    H76      H        0.36260    0.53460    0.26760    1.000
    C113     C        0.22980    0.95670    0.16250    1.000
    C114     C        0.32340    0.06320    0.29400    1.000
    H77      H        0.30320    0.09490    0.27550    1.000
    C115     C        0.30610    0.68800    0.21530    1.000
    C116     C        0.26158    0.91210    0.19240    1.000
    C117     C        0.34360    0.10580    0.32920    1.000
    H78      H        0.33650    0.16670    0.33510    1.000
    C118     C        0.33610    0.65200    0.24550    1.000
    H79      H        0.35270    0.69100    0.26460    1.000
    C119     C        0.29843    0.78830    0.21500    1.000
    C120     C        0.31050    0.92200    0.24910    1.000
    C121     C        0.43835    0.87130    0.49960    1.000
    C122     C        0.21740    0.04390    0.17060    1.000
    H80      H        0.22940    0.07520    0.19550    1.000
    C123     C        0.33270    0.97350    0.28570    1.000
    C124     C        0.45730    0.97870    0.45010    1.000
    H81      H        0.47680    0.00060    0.43410    1.000
    C125     C        0.43030    0.70750    0.58140    1.000
    C126     C        0.18760    0.08550    0.14220    1.000
    H82      H        0.17890    0.14500    0.14850    1.000
    C127     C        0.44646    0.79190    0.52800    1.000
    C128     C        0.51846    0.60850    0.55083    1.000
    C129     C        0.53718    0.59420    0.51563    1.000
    H83      H        0.52770    0.62480    0.48980    1.000
    C130     C        0.56973    0.53490    0.51829    1.000
    H84      H        0.58250    0.52510    0.49420    1.000
    N45      N        0.58355    0.49010    0.55613    1.000
    C131     C        0.56480    0.50440    0.59133    1.000
    H85      H        0.57430    0.47380    0.61720    1.000
    C132     C        0.53230    0.56360    0.58868    1.000
    H86      H        0.51950    0.57350    0.61270    1.000
    C133     C        0.39440    0.99100    0.46970    1.000
    H87      H        0.36920    0.02110    0.46730    1.000
    C134     C        0.40180    0.91680    0.49660    1.000
    H88      H        0.38210    0.89710    0.51280    1.000
    C135     C        0.21120    0.91350    0.12570    1.000
    H89      H        0.21830    0.85280    0.11940    1.000
    C136     C        0.36300    0.93050    0.31290    1.000
    H90      H        0.37030    0.86910    0.30810    1.000
    N46      N        0.28064    0.96390    0.22389    1.000
    C137     C        0.38240    0.97880    0.34710    1.000
    H91      H        0.40370    0.94970    0.36540    1.000
    C138     C        0.28950    0.53620    0.19270    1.000
    H92      H        0.27290    0.49560    0.17440    1.000
    N47      N        0.45834    0.64570    0.57760    1.000
    C139     C        0.48120    0.66430    0.54850    1.000
    C140     C        0.37980    0.75560    0.62610    1.000
    H93      H        0.37710    0.81300    0.61210    1.000
    C141     C        0.40510    0.69120    0.61460    1.000
    C142     C        0.35840    0.73700    0.65810    1.000
    H94      H        0.34100    0.78290    0.66580    1.000
    C143     C        0.40510    0.60720    0.63370    1.000
    H95      H        0.42060    0.55860    0.62490    1.000
    C144     C        0.38270    0.59340    0.66560    1.000
    H96      H        0.38320    0.53510    0.67870    1.000
    N48      N        0.36046    0.65920    0.67870    1.000
    I25      I        0.23549    0.22715    0.79290    1.000
    I26      I        0.40061    0.26242    0.89412    1.000
    I27      I        0.34694    0.36741    0.00467    1.000
    I28      I        0.12489    0.16038    0.70124    1.000
    I29      I        0.14003    0.26725    0.56072    1.000
    I30      I        0.02932    0.32364    0.62252    1.000
    Zn13     Zn       0.17068    0.13743    0.77159    1.000
    Zn14     Zn       0.37325    0.39018    0.93586    1.000
    Zn15     Zn       0.09278    0.36932    0.59419    1.000
    N49      N        0.18139    0.99850    0.77826    1.000
    N50      N        0.07829    0.47830    0.55308    1.000
    N51      N        0.32950    0.45500    0.89349    1.000
    N52      N        0.02417    0.76570    0.47858    1.000
    N53      N        0.23106    0.67700    0.81312    1.000
    C145     C        0.21730    0.87100    0.81160    1.000
    H97      H        0.23790    0.84820    0.83290    1.000
    N54      N        0.07639    0.71670    0.44177    1.000
    N55      N        0.12706    0.43550    0.64420    1.000
    N56      N        0.17868    0.66520    0.75431    1.000
    C146     C        0.03350    0.59680    0.52390    1.000
    H98      H        0.00820    0.62610    0.52220    1.000
    C147     C        0.31760    0.53990    0.90130    1.000
    H99      H        0.32970    0.56920    0.92670    1.000
    C148     C        0.15840    0.94110    0.75270    1.000
    H100     H        0.13740    0.96540    0.73240    1.000
    C149     C        0.27020    0.54330    0.83750    1.000
    C150     C        0.17660    0.43680    0.70600    1.000
    H101     H        0.19680    0.40510    0.72450    1.000
    C151     C        0.19390    0.81200    0.78470    1.000
    C152     C        0.23842    0.58790    0.80760    1.000
    C153     C        0.15640    0.39420    0.67080    1.000
    H102     H        0.16350    0.33330    0.66490    1.000
    C154     C        0.16390    0.84800    0.75450    1.000
    H103     H        0.14730    0.80900    0.73540    1.000
    C155     C        0.20157    0.71170    0.78500    1.000
    C156     C        0.18950    0.57800    0.75090    1.000
    C157     C        0.06165    0.62870    0.50040    1.000
    C158     C        0.28260    0.45610    0.82940    1.000
    H104     H        0.27060    0.42480    0.80450    1.000
    C159     C        0.16730    0.52650    0.71430    1.000
    C160     C        0.04270    0.52130    0.54990    1.000
    H105     H        0.02320    0.49940    0.56590    1.000
    C161     C        0.06970    0.79250    0.41860    1.000
    C162     C        0.31240    0.41450    0.85780    1.000
    H106     H        0.32110    0.35500    0.85150    1.000
    C163     C        0.05354    0.70810    0.47200    1.000
    C164     C        0.98154    0.89150    0.44917    1.000
    C165     C        0.96282    0.90580    0.48437    1.000
    H107     H        0.97230    0.87520    0.51020    1.000
    C166     C        0.93027    0.96510    0.48171    1.000
    H108     H        0.91750    0.97490    0.50580    1.000
    N57      N        0.91645    0.00990    0.44387    1.000
    C167     C        0.93520    0.99560    0.40867    1.000
    H109     H        0.92570    0.02620    0.38280    1.000
    C168     C        0.96770    0.93640    0.41132    1.000
    H110     H        0.98050    0.92650    0.38730    1.000
    C169     C        0.10560    0.50900    0.53030    1.000
    H111     H        0.13080    0.47890    0.53270    1.000
    C170     C        0.09820    0.58320    0.50340    1.000
    H112     H        0.11790    0.60290    0.48720    1.000
    C171     C        0.28880    0.58650    0.87430    1.000
    H113     H        0.28170    0.64720    0.88060    1.000
    C172     C        0.13700    0.56950    0.68710    1.000
    H114     H        0.12970    0.63090    0.69190    1.000
    N58      N        0.21936    0.53610    0.77611    1.000
    C173     C        0.11760    0.52120    0.65290    1.000
    H115     H        0.09630    0.55030    0.63460    1.000
    C174     C        0.21050    0.96380    0.80730    1.000
    H116     H        0.22710    0.00440    0.82560    1.000
    N59      N        0.04166    0.85430    0.42240    1.000
    C175     C        0.01880    0.83570    0.45150    1.000
    C176     C        0.12020    0.74440    0.37390    1.000
    H117     H        0.12290    0.68700    0.38790    1.000
    C177     C        0.09490    0.80880    0.38540    1.000
    C178     C        0.14160    0.76300    0.34190    1.000
    H118     H        0.15900    0.71710    0.33420    1.000
    C179     C        0.09490    0.89280    0.36630    1.000
    H119     H        0.07940    0.94140    0.37510    1.000
    C180     C        0.11730    0.90660    0.33440    1.000
    H120     H        0.11680    0.96490    0.32130    1.000
    N60      N        0.13954    0.84080    0.32130    1.000
    I31      I        0.73549    0.72715    0.79290    1.000
    I32      I        0.90061    0.76242    0.89412    1.000
    I33      I        0.84694    0.86741    0.00467    1.000
    I34      I        0.62489    0.66038    0.70124    1.000
    I35      I        0.64003    0.76725    0.56072    1.000
    I36      I        0.52932    0.82364    0.62252    1.000
    Zn16     Zn       0.67068    0.63743    0.77159    1.000
    Zn17     Zn       0.87325    0.89018    0.93586    1.000
    Zn18     Zn       0.59278    0.86932    0.59419    1.000
    N61      N        0.68139    0.49850    0.77826    1.000
    N62      N        0.57829    0.97830    0.55308    1.000
    N63      N        0.82950    0.95500    0.89349    1.000
    N64      N        0.52417    0.26570    0.47858    1.000
    N65      N        0.73106    0.17700    0.81312    1.000
    C181     C        0.71730    0.37100    0.81160    1.000
    H121     H        0.73790    0.34820    0.83290    1.000
    N66      N        0.57639    0.21670    0.44177    1.000
    N67      N        0.62706    0.93550    0.64420    1.000
    N68      N        0.67868    0.16520    0.75431    1.000
    C182     C        0.53350    0.09680    0.52390    1.000
    H122     H        0.50820    0.12610    0.52220    1.000
    C183     C        0.81760    0.03990    0.90130    1.000
    H123     H        0.82970    0.06920    0.92670    1.000
    C184     C        0.65840    0.44110    0.75270    1.000
    H124     H        0.63740    0.46540    0.73240    1.000
    C185     C        0.77020    0.04330    0.83750    1.000
    C186     C        0.67660    0.93680    0.70600    1.000
    H125     H        0.69680    0.90510    0.72450    1.000
    C187     C        0.69390    0.31200    0.78470    1.000
    C188     C        0.73842    0.08790    0.80760    1.000
    C189     C        0.65640    0.89420    0.67080    1.000
    H126     H        0.66350    0.83330    0.66490    1.000
    C190     C        0.66390    0.34800    0.75450    1.000
    H127     H        0.64730    0.30900    0.73540    1.000
    C191     C        0.70157    0.21170    0.78500    1.000
    C192     C        0.68950    0.07800    0.75090    1.000
    C193     C        0.56165    0.12870    0.50040    1.000
    C194     C        0.78260    0.95610    0.82940    1.000
    H128     H        0.77060    0.92480    0.80450    1.000
    C195     C        0.66730    0.02650    0.71430    1.000
    C196     C        0.54270    0.02130    0.54990    1.000
    H129     H        0.52320    0.99940    0.56590    1.000
    C197     C        0.56970    0.29250    0.41860    1.000
    C198     C        0.81240    0.91450    0.85780    1.000
    H130     H        0.82110    0.85500    0.85150    1.000
    C199     C        0.55354    0.20810    0.47200    1.000
    C200     C        0.48154    0.39150    0.44917    1.000
    C201     C        0.46282    0.40580    0.48437    1.000
    H131     H        0.47230    0.37520    0.51020    1.000
    C202     C        0.43027    0.46510    0.48171    1.000
    H132     H        0.41750    0.47490    0.50580    1.000
    N69      N        0.41645    0.50990    0.44387    1.000
    C203     C        0.43520    0.49560    0.40867    1.000
    H133     H        0.42570    0.52620    0.38280    1.000
    C204     C        0.46770    0.43640    0.41132    1.000
    H134     H        0.48050    0.42650    0.38730    1.000
    C205     C        0.60560    0.00900    0.53030    1.000
    H135     H        0.63080    0.97890    0.53270    1.000
    C206     C        0.59820    0.08320    0.50340    1.000
    H136     H        0.61790    0.10290    0.48720    1.000
    C207     C        0.78880    0.08650    0.87430    1.000
    H137     H        0.78170    0.14720    0.88060    1.000
    C208     C        0.63700    0.06950    0.68710    1.000
    H138     H        0.62970    0.13090    0.69190    1.000
    N70      N        0.71936    0.03610    0.77611    1.000
    C209     C        0.61760    0.02120    0.65290    1.000
    H139     H        0.59630    0.05030    0.63460    1.000
    C210     C        0.71050    0.46380    0.80730    1.000
    H140     H        0.72710    0.50440    0.82560    1.000
    N71      N        0.54166    0.35430    0.42240    1.000
    C211     C        0.51880    0.33570    0.45150    1.000
    C212     C        0.62020    0.24440    0.37390    1.000
    H141     H        0.62290    0.18700    0.38790    1.000
    C213     C        0.59490    0.30880    0.38540    1.000
    C214     C        0.64160    0.26300    0.34190    1.000
    H142     H        0.65900    0.21710    0.33420    1.000
    C215     C        0.59490    0.39280    0.36630    1.000
    H143     H        0.57940    0.44140    0.37510    1.000
    C216     C        0.61730    0.40660    0.33440    1.000
    H144     H        0.61680    0.46490    0.32130    1.000
    N72      N        0.63954    0.34080    0.32130    1.000
    I37      I        0.23549    0.77285    0.29290    1.000
    I38      I        0.40061    0.73758    0.39412    1.000
    I39      I        0.34694    0.63259    0.50467    1.000
    I40      I        0.12489    0.83962    0.20124    1.000
    I41      I        0.14003    0.73275    0.06072    1.000
    I42      I        0.02932    0.67636    0.12252    1.000
    Zn19     Zn       0.17068    0.86257    0.27159    1.000
    Zn20     Zn       0.37325    0.60982    0.43586    1.000
    Zn21     Zn       0.09278    0.63068    0.09419    1.000
    N73      N        0.18139    0.00150    0.27826    1.000
    N74      N        0.07829    0.52170    0.05308    1.000
    N75      N        0.32950    0.54500    0.39349    1.000
    N76      N        0.02417    0.23430    0.97858    1.000
    N77      N        0.23106    0.32300    0.31312    1.000
    C217     C        0.21730    0.12900    0.31160    1.000
    H145     H        0.23790    0.15180    0.33290    1.000
    N78      N        0.07639    0.28330    0.94177    1.000
    N79      N        0.12706    0.56450    0.14420    1.000
    N80      N        0.17868    0.33480    0.25431    1.000
    C218     C        0.03350    0.40320    0.02390    1.000
    H146     H        0.00820    0.37390    0.02220    1.000
    C219     C        0.31760    0.46010    0.40130    1.000
    H147     H        0.32970    0.43080    0.42670    1.000
    C220     C        0.15840    0.05890    0.25270    1.000
    H148     H        0.13740    0.03460    0.23240    1.000
    C221     C        0.27020    0.45670    0.33750    1.000
    C222     C        0.17660    0.56320    0.20600    1.000
    H149     H        0.19680    0.59490    0.22450    1.000
    C223     C        0.19390    0.18800    0.28470    1.000
    C224     C        0.23842    0.41210    0.30760    1.000
    C225     C        0.15640    0.60580    0.17080    1.000
    H150     H        0.16350    0.66670    0.16490    1.000
    C226     C        0.16390    0.15200    0.25450    1.000
    H151     H        0.14730    0.19100    0.23540    1.000
    C227     C        0.20157    0.28830    0.28500    1.000
    C228     C        0.18950    0.42200    0.25090    1.000
    C229     C        0.06165    0.37130    0.00040    1.000
    C230     C        0.28260    0.54390    0.32940    1.000
    H152     H        0.27060    0.57520    0.30450    1.000
    C231     C        0.16730    0.47350    0.21430    1.000
    C232     C        0.04270    0.47870    0.04990    1.000
    H153     H        0.02320    0.50060    0.06590    1.000
    C233     C        0.06970    0.20750    0.91860    1.000
    C234     C        0.31240    0.58550    0.35780    1.000
    H154     H        0.32110    0.64500    0.35150    1.000
    C235     C        0.05354    0.29190    0.97200    1.000
    C236     C        0.98154    0.10850    0.94917    1.000
    C237     C        0.96282    0.09420    0.98437    1.000
    H155     H        0.97230    0.12480    0.01020    1.000
    C238     C        0.93027    0.03490    0.98171    1.000
    H156     H        0.91750    0.02510    0.00580    1.000
    N81      N        0.91645    0.99010    0.94387    1.000
    C239     C        0.93520    0.00440    0.90867    1.000
    H157     H        0.92570    0.97380    0.88280    1.000
    C240     C        0.96770    0.06360    0.91132    1.000
    H158     H        0.98050    0.07350    0.88730    1.000
    C241     C        0.10560    0.49100    0.03030    1.000
    H159     H        0.13080    0.52110    0.03270    1.000
    C242     C        0.09820    0.41680    0.00340    1.000
    H160     H        0.11790    0.39710    0.98720    1.000
    C243     C        0.28880    0.41350    0.37430    1.000
    H161     H        0.28170    0.35280    0.38060    1.000
    C244     C        0.13700    0.43050    0.18710    1.000
    H162     H        0.12970    0.36910    0.19190    1.000
    N82      N        0.21936    0.46390    0.27611    1.000
    C245     C        0.11760    0.47880    0.15290    1.000
    H163     H        0.09630    0.44970    0.13460    1.000
    C246     C        0.21050    0.03620    0.30730    1.000
    H164     H        0.22710    0.99560    0.32560    1.000
    N83      N        0.04166    0.14570    0.92240    1.000
    C247     C        0.01880    0.16430    0.95150    1.000
    C248     C        0.12020    0.25560    0.87390    1.000
    H165     H        0.12290    0.31300    0.88790    1.000
    C249     C        0.09490    0.19120    0.88540    1.000
    C250     C        0.14160    0.23700    0.84190    1.000
    H166     H        0.15900    0.28290    0.83420    1.000
    C251     C        0.09490    0.10720    0.86630    1.000
    H167     H        0.07940    0.05860    0.87510    1.000
    C252     C        0.11730    0.09340    0.83440    1.000
    H168     H        0.11680    0.03510    0.82130    1.000
    N84      N        0.13954    0.15920    0.82130    1.000
    I43      I        0.73549    0.27285    0.29290    1.000
    I44      I        0.90061    0.23758    0.39412    1.000
    I45      I        0.84694    0.13259    0.50467    1.000
    I46      I        0.62489    0.33962    0.20124    1.000
    I47      I        0.64003    0.23275    0.06072    1.000
    I48      I        0.52932    0.17636    0.12252    1.000
    Zn22     Zn       0.67068    0.36257    0.27159    1.000
    Zn23     Zn       0.87325    0.10982    0.43586    1.000
    Zn24     Zn       0.59278    0.13068    0.09419    1.000
    N85      N        0.68139    0.50150    0.27826    1.000
    N86      N        0.57829    0.02170    0.05308    1.000
    N87      N        0.82950    0.04500    0.39349    1.000
    N88      N        0.52417    0.73430    0.97858    1.000
    N89      N        0.73106    0.82300    0.31312    1.000
    C253     C        0.71730    0.62900    0.31160    1.000
    H169     H        0.73790    0.65180    0.33290    1.000
    N90      N        0.57639    0.78330    0.94177    1.000
    N91      N        0.62706    0.06450    0.14420    1.000
    N92      N        0.67868    0.83480    0.25431    1.000
    C254     C        0.53350    0.90320    0.02390    1.000
    H170     H        0.50820    0.87390    0.02220    1.000
    C255     C        0.81760    0.96010    0.40130    1.000
    H171     H        0.82970    0.93080    0.42670    1.000
    C256     C        0.65840    0.55890    0.25270    1.000
    H172     H        0.63740    0.53460    0.23240    1.000
    C257     C        0.77020    0.95670    0.33750    1.000
    C258     C        0.67660    0.06320    0.20600    1.000
    H173     H        0.69680    0.09490    0.22450    1.000
    C259     C        0.69390    0.68800    0.28470    1.000
    C260     C        0.73842    0.91210    0.30760    1.000
    C261     C        0.65640    0.10580    0.17080    1.000
    H174     H        0.66350    0.16670    0.16490    1.000
    C262     C        0.66390    0.65200    0.25450    1.000
    H175     H        0.64730    0.69100    0.23540    1.000
    C263     C        0.70157    0.78830    0.28500    1.000
    C264     C        0.68950    0.92200    0.25090    1.000
    C265     C        0.56165    0.87130    0.00040    1.000
    C266     C        0.78260    0.04390    0.32940    1.000
    H176     H        0.77060    0.07520    0.30450    1.000
    C267     C        0.66730    0.97350    0.21430    1.000
    C268     C        0.54270    0.97870    0.04990    1.000
    H177     H        0.52320    0.00060    0.06590    1.000
    C269     C        0.56970    0.70750    0.91860    1.000
    C270     C        0.81240    0.08550    0.35780    1.000
    H178     H        0.82110    0.14500    0.35150    1.000
    C271     C        0.55354    0.79190    0.97200    1.000
    C272     C        0.48154    0.60850    0.94917    1.000
    C273     C        0.46282    0.59420    0.98437    1.000
    H179     H        0.47230    0.62480    0.01020    1.000
    C274     C        0.43027    0.53490    0.98171    1.000
    H180     H        0.41750    0.52510    0.00580    1.000
    N93      N        0.41645    0.49010    0.94387    1.000
    C275     C        0.43520    0.50440    0.90867    1.000
    H181     H        0.42570    0.47380    0.88280    1.000
    C276     C        0.46770    0.56360    0.91132    1.000
    H182     H        0.48050    0.57350    0.88730    1.000
    C277     C        0.60560    0.99100    0.03030    1.000
    H183     H        0.63080    0.02110    0.03270    1.000
    C278     C        0.59820    0.91680    0.00340    1.000
    H184     H        0.61790    0.89710    0.98720    1.000
    C279     C        0.78880    0.91350    0.37430    1.000
    H185     H        0.78170    0.85280    0.38060    1.000
    C280     C        0.63700    0.93050    0.18710    1.000
    H186     H        0.62970    0.86910    0.19190    1.000
    N94      N        0.71936    0.96390    0.27611    1.000
    C281     C        0.61760    0.97880    0.15290    1.000
    H187     H        0.59630    0.94970    0.13460    1.000
    C282     C        0.71050    0.53620    0.30730    1.000
    H188     H        0.72710    0.49560    0.32560    1.000
    N95      N        0.54166    0.64570    0.92240    1.000
    C283     C        0.51880    0.66430    0.95150    1.000
    C284     C        0.62020    0.75560    0.87390    1.000
    H189     H        0.62290    0.81300    0.88790    1.000
    C285     C        0.59490    0.69120    0.88540    1.000
    C286     C        0.64160    0.73700    0.84190    1.000
    H190     H        0.65900    0.78290    0.83420    1.000
    C287     C        0.59490    0.60720    0.86630    1.000
    H191     H        0.57940    0.55860    0.87510    1.000
    C288     C        0.61730    0.59340    0.83440    1.000
    H192     H        0.61680    0.53510    0.82130    1.000
    N96      N        0.63954    0.65920    0.82130    1.000
