# CIF file generated by openbabel 3.1.0, see https://openbabel.org
data_I
_chemical_name_common 'image0'
_cell_length_a 13.063
_cell_length_b 9.9017
_cell_length_c 17.472
_cell_angle_alpha 90
_cell_angle_beta 90
_cell_angle_gamma 90
_space_group_name_H-M_alt 'P 1'
_space_group_name_Hall 'P 1'
loop_
    _symmetry_equiv_pos_as_xyz
    x,y,z
loop_
    _atom_site_label
    _atom_site_type_symbol
    _atom_site_fract_x
    _atom_site_fract_y
    _atom_site_fract_z
    _atom_site_occupancy
    O1       O        0.15010    0.05240    0.91770    1.000
    O2       O        0.22620    0.24040    0.88150    1.000
    N1       N        0.86190    0.50450    0.26060    1.000
    N2       N        0.01270    0.54900    0.20700    1.000
    N3       N        0.96370    0.45130    0.16720    1.000
    C1       C        0.94840    0.57730    0.26340    1.000
    H1       H        0.96190    0.64120    0.30110    1.000
    C2       C        0.87470    0.42860    0.19910    1.000
    H2       H        0.82680    0.36710    0.18090    1.000
    C3       C        0.01180    0.38510    0.10430    1.000
    C4       C        0.09510    0.44240    0.06990    1.000
    H3       H        0.12020    0.52510    0.08680    1.000
    C5       C        0.97570    0.26370    0.08060    1.000
    H4       H        0.91820    0.22610    0.10360    1.000
    C6       C        0.14120    0.37570    0.00980    1.000
    H5       H        0.19570    0.41680    0.98470    1.000
    C7       C        0.02530    0.19550    0.02120    1.000
    H6       H        0.00140    0.11160    0.00530    1.000
    C8       C        0.10950    0.25200    0.98630    1.000
    C9       C        0.16560    0.17830    0.92540    1.000
    O3       O        0.34990    0.94760    0.91770    1.000
    O4       O        0.27380    0.75960    0.88150    1.000
    N4       N        0.63810    0.49550    0.26060    1.000
    N5       N        0.48730    0.45100    0.20700    1.000
    N6       N        0.53630    0.54870    0.16720    1.000
    C10      C        0.55160    0.42270    0.26340    1.000
    H7       H        0.53810    0.35880    0.30110    1.000
    C11      C        0.62530    0.57140    0.19910    1.000
    H8       H        0.67320    0.63290    0.18090    1.000
    C12      C        0.48820    0.61490    0.10430    1.000
    C13      C        0.40490    0.55760    0.06990    1.000
    H9       H        0.37980    0.47490    0.08680    1.000
    C14      C        0.52430    0.73630    0.08060    1.000
    H10      H        0.58180    0.77390    0.10360    1.000
    C15      C        0.35880    0.62430    0.00980    1.000
    H11      H        0.30430    0.58320    0.98470    1.000
    C16      C        0.47470    0.80450    0.02120    1.000
    H12      H        0.49860    0.88840    0.00530    1.000
    C17      C        0.39050    0.74800    0.98630    1.000
    C18      C        0.33440    0.82170    0.92540    1.000
    O5       O        0.65010    0.44760    0.41770    1.000
    O6       O        0.72620    0.25960    0.38150    1.000
    N7       N        0.36190    0.99550    0.76060    1.000
    N8       N        0.51270    0.95100    0.70700    1.000
    N9       N        0.46370    0.04870    0.66720    1.000
    C19      C        0.44840    0.92270    0.76340    1.000
    H13      H        0.46190    0.85880    0.80110    1.000
    C20      C        0.37470    0.07140    0.69910    1.000
    H14      H        0.32680    0.13290    0.68090    1.000
    C21      C        0.51180    0.11490    0.60430    1.000
    C22      C        0.59510    0.05760    0.56990    1.000
    H15      H        0.62020    0.97490    0.58680    1.000
    C23      C        0.47570    0.23630    0.58060    1.000
    H16      H        0.41820    0.27390    0.60360    1.000
    C24      C        0.64120    0.12430    0.50980    1.000
    H17      H        0.69570    0.08320    0.48470    1.000
    C25      C        0.52530    0.30450    0.52120    1.000
    H18      H        0.50140    0.38840    0.50530    1.000
    C26      C        0.60950    0.24800    0.48630    1.000
    C27      C        0.66560    0.32170    0.42540    1.000
    O7       O        0.84990    0.55240    0.41770    1.000
    O8       O        0.77380    0.74040    0.38150    1.000
    N10      N        0.13810    0.00450    0.76060    1.000
    N11      N        0.98730    0.04900    0.70700    1.000
    N12      N        0.03630    0.95130    0.66720    1.000
    C28      C        0.05160    0.07730    0.76340    1.000
    H19      H        0.03810    0.14120    0.80110    1.000
    C29      C        0.12530    0.92860    0.69910    1.000
    H20      H        0.17320    0.86710    0.68090    1.000
    C30      C        0.98820    0.88510    0.60430    1.000
    C31      C        0.90490    0.94240    0.56990    1.000
    H21      H        0.87980    0.02510    0.58680    1.000
    C32      C        0.02430    0.76370    0.58060    1.000
    H22      H        0.08180    0.72610    0.60360    1.000
    C33      C        0.85880    0.87570    0.50980    1.000
    H23      H        0.80430    0.91680    0.48470    1.000
    C34      C        0.97470    0.69550    0.52120    1.000
    H24      H        0.99860    0.61160    0.50530    1.000
    C35      C        0.89050    0.75200    0.48630    1.000
    C36      C        0.83440    0.67830    0.42540    1.000
    Cu1      Cu       0.75000    0.50000    0.33823    1.000
    Cu2      Cu       0.25000    0.00000    0.83823    1.000
    O9       O        0.34990    0.55240    0.58230    1.000
    O10      O        0.27380    0.74040    0.61850    1.000
    N13      N        0.63810    0.00450    0.23940    1.000
    N14      N        0.48730    0.04900    0.29300    1.000
    N15      N        0.53630    0.95130    0.33280    1.000
    C37      C        0.55160    0.07730    0.23660    1.000
    H25      H        0.53810    0.14120    0.19890    1.000
    C38      C        0.62530    0.92860    0.30090    1.000
    H26      H        0.67320    0.86710    0.31910    1.000
    C39      C        0.48820    0.88510    0.39570    1.000
    C40      C        0.40490    0.94240    0.43010    1.000
    H27      H        0.37980    0.02510    0.41320    1.000
    C41      C        0.52430    0.76370    0.41940    1.000
    H28      H        0.58180    0.72610    0.39640    1.000
    C42      C        0.35880    0.87570    0.49020    1.000
    H29      H        0.30430    0.91680    0.51530    1.000
    C43      C        0.47470    0.69550    0.47880    1.000
    H30      H        0.49860    0.61160    0.49470    1.000
    C44      C        0.39050    0.75200    0.51370    1.000
    C45      C        0.33440    0.67830    0.57460    1.000
    O11      O        0.15010    0.44760    0.58230    1.000
    O12      O        0.22620    0.25960    0.61850    1.000
    N16      N        0.86190    0.99550    0.23940    1.000
    N17      N        0.01270    0.95100    0.29300    1.000
    N18      N        0.96370    0.04870    0.33280    1.000
    C46      C        0.94840    0.92270    0.23660    1.000
    H31      H        0.96190    0.85880    0.19890    1.000
    C47      C        0.87470    0.07140    0.30090    1.000
    H32      H        0.82680    0.13290    0.31910    1.000
    C48      C        0.01180    0.11490    0.39570    1.000
    C49      C        0.09510    0.05760    0.43010    1.000
    H33      H        0.12020    0.97490    0.41320    1.000
    C50      C        0.97570    0.23630    0.41940    1.000
    H34      H        0.91820    0.27390    0.39640    1.000
    C51      C        0.14120    0.12430    0.49020    1.000
    H35      H        0.19570    0.08320    0.51530    1.000
    C52      C        0.02530    0.30450    0.47880    1.000
    H36      H        0.00140    0.38840    0.49470    1.000
    C53      C        0.10950    0.24800    0.51370    1.000
    C54      C        0.16560    0.32170    0.57460    1.000
    O13      O        0.84990    0.94760    0.08230    1.000
    O14      O        0.77380    0.75960    0.11850    1.000
    N19      N        0.13810    0.49550    0.73940    1.000
    N20      N        0.98730    0.45100    0.79300    1.000
    N21      N        0.03630    0.54870    0.83280    1.000
    C55      C        0.05160    0.42270    0.73660    1.000
    H37      H        0.03810    0.35880    0.69890    1.000
    C56      C        0.12530    0.57140    0.80090    1.000
    H38      H        0.17320    0.63290    0.81910    1.000
    C57      C        0.98820    0.61490    0.89570    1.000
    C58      C        0.90490    0.55760    0.93010    1.000
    H39      H        0.87980    0.47490    0.91320    1.000
    C59      C        0.02430    0.73630    0.91940    1.000
    H40      H        0.08180    0.77390    0.89640    1.000
    C60      C        0.85880    0.62430    0.99020    1.000
    H41      H        0.80430    0.58320    0.01530    1.000
    C61      C        0.97470    0.80450    0.97880    1.000
    H42      H        0.99860    0.88840    0.99470    1.000
    C62      C        0.89050    0.74800    0.01370    1.000
    C63      C        0.83440    0.82170    0.07460    1.000
    O15      O        0.65010    0.05240    0.08230    1.000
    O16      O        0.72620    0.24040    0.11850    1.000
    N22      N        0.36190    0.50450    0.73940    1.000
    N23      N        0.51270    0.54900    0.79300    1.000
    N24      N        0.46370    0.45130    0.83280    1.000
    C64      C        0.44840    0.57730    0.73660    1.000
    H43      H        0.46190    0.64120    0.69890    1.000
    C65      C        0.37470    0.42860    0.80090    1.000
    H44      H        0.32680    0.36710    0.81910    1.000
    C66      C        0.51180    0.38510    0.89570    1.000
    C67      C        0.59510    0.44240    0.93010    1.000
    H45      H        0.62020    0.52510    0.91320    1.000
    C68      C        0.47570    0.26370    0.91940    1.000
    H46      H        0.41820    0.22610    0.89640    1.000
    C69      C        0.64120    0.37570    0.99020    1.000
    H47      H        0.69570    0.41680    0.01530    1.000
    C70      C        0.52530    0.19550    0.97880    1.000
    H48      H        0.50140    0.11160    0.99470    1.000
    C71      C        0.60950    0.25200    0.01370    1.000
    C72      C        0.66560    0.17830    0.07460    1.000
    Cu3      Cu       0.75000    0.00000    0.16177    1.000
    Cu4      Cu       0.25000    0.50000    0.66177    1.000
