# CIF file generated by openbabel 3.1.0, see https://openbabel.org
data_I
_chemical_name_common 'image0'
_cell_length_a 37.227
_cell_length_b 37.227
_cell_length_c 30.149
_cell_angle_alpha 90
_cell_angle_beta 90
_cell_angle_gamma 120
_space_group_name_H-M_alt 'P 1'
_space_group_name_Hall 'P 1'
loop_
    _symmetry_equiv_pos_as_xyz
    x,y,z
loop_
    _atom_site_label
    _atom_site_type_symbol
    _atom_site_fract_x
    _atom_site_fract_y
    _atom_site_fract_z
    _atom_site_occupancy
    Zn1      Zn       0.63325    0.85832    0.73877    1.000
    Zn2      Zn       0.70235    0.84200    0.69821    1.000
    Zn3      Zn       0.37702    0.71901    0.21812    1.000
    O1       O        0.73840    0.09510    0.27310    1.000
    O2       O        0.79060    0.09350    0.31960    1.000
    O3       O        0.67830    0.85440    0.64530    1.000
    O4       O        0.62860    0.87150    0.67570    1.000
    O5       O        0.57680    0.82002    0.75440    1.000
    O6       O        0.75850    0.87250    0.71050    1.000
    F1       F        0.68850    0.00860    0.26240    1.000
    F2       F        0.74100    0.07560    0.39860    1.000
    F3       F        0.70720    0.91570    0.58210    1.000
    F4       F        0.56740    0.83070    0.61340    1.000
    F5       F        0.46000    0.72520    0.38140    1.000
    F6       F        0.45580    0.83190    0.29630    1.000
    F7       F        0.50990    0.80140    0.69860    1.000
    F8       F        0.82140    0.85540    0.71750    1.000
    C1       C        0.62960    0.93440    0.39920    1.000
    C2       C        0.63870    0.92780    0.44220    1.000
    H1       H        0.66300    0.94750    0.45580    1.000
    C3       C        0.61130    0.89180    0.46470    1.000
    C4       C        0.57490    0.86230    0.44440    1.000
    H2       H        0.55660    0.83820    0.45950    1.000
    C5       C        0.56580    0.86890    0.40140    1.000
    C6       C        0.59310    0.90490    0.37890    1.000
    H3       H        0.58700    0.90930    0.35020    1.000
    C7       C        0.65950    0.97170    0.37400    1.000
    C8       C        0.68690    0.00660    0.39800    1.000
    H4       H        0.68640    0.00600    0.42890    1.000
    C9       C        0.71520    0.04260    0.37600    1.000
    C10      C        0.71600    0.04360    0.32990    1.000
    C11      C        0.68860    0.00860    0.30590    1.000
    C12      C        0.66030    0.97270    0.32790    1.000
    H5       H        0.64190    0.94930    0.31190    1.000
    C13      C        0.61680    0.88540    0.51280    1.000
    C14      C        0.58600    0.86020    0.54270    1.000
    H6       H        0.55820    0.84730    0.53420    1.000
    C15      C        0.59650    0.85430    0.58520    1.000
    C16      C        0.63790    0.87350    0.59780    1.000
    C17      C        0.66880    0.89870    0.56800    1.000
    C18      C        0.65830    0.90460    0.52550    1.000
    H7       H        0.67890    0.92140    0.50550    1.000
    C19      C        0.52430    0.83540    0.37990    1.000
    C20      C        0.50530    0.84670    0.34750    1.000
    H8       H        0.51610    0.87450    0.34020    1.000
    C21      C        0.47010    0.81640    0.32580    1.000
    C22      C        0.45400    0.77480    0.33670    1.000
    C23      C        0.47300    0.76350    0.36920    1.000
    C24      C        0.50810    0.79380    0.39080    1.000
    H9       H        0.52080    0.78630    0.41250    1.000
    C25      C        0.75090    0.08070    0.30760    1.000
    C26      C        0.64530    0.86040    0.64230    1.000
    C27      C        0.41840    0.74140    0.31110    1.000
    C28      C        0.44472    0.74690    0.72350    1.000
    H10      H        0.43030    0.75600    0.70600    1.000
    C29      C        0.48824    0.76850    0.72340    1.000
    C30      C        0.88860    0.91481    0.73290    1.000
    H11      H        0.90310    0.90250    0.72150    1.000
    C31      C        0.84509    0.89304    0.73290    1.000
    O7       O        0.40490    0.74780    0.27310    1.000
    O8       O        0.38510    0.71200    0.33110    1.000
    F9       F        0.42240    0.76300    0.41070    1.000
    F10      F        0.49560    0.79230    0.27130    1.000
    C32      C        0.48770    0.81180    0.40350    1.000
    H12      H        0.48670    0.81650    0.43360    1.000
    C33      C        0.45280    0.78100    0.38200    1.000
    C34      C        0.49100    0.79730    0.31350    1.000
    C35      C        0.52570    0.82870    0.33470    1.000
    H13      H        0.54980    0.84530    0.31870    1.000
    Zn4      Zn       0.62770    0.79240    0.70670    1.000
    Zn5      Zn       0.69790    0.88950    0.72140    1.000
    O9       O        0.42420    0.70960    0.30440    1.000
    O10      O        0.39430    0.75800    0.31140    1.000
    O11      O        0.77350    0.07170    0.27930    1.000
    O12      O        0.74710    0.11460    0.31500    1.000
    O13      O        0.68020    0.89240    0.65980    1.000
    O14      O        0.61980    0.82040    0.65440    1.000
    O15      O        0.75220    0.90930    0.74400    1.000
    O16      O        0.57390    0.78710    0.70910    1.000
    Zn6      Zn       0.14168    0.77493    0.73877    1.000
    Zn7      Zn       0.15800    0.86035    0.69821    1.000
    Zn8      Zn       0.28099    0.65801    0.21812    1.000
    O17      O        0.90490    0.64330    0.27310    1.000
    O18      O        0.90650    0.69710    0.31960    1.000
    O19      O        0.14560    0.82390    0.64530    1.000
    O20      O        0.12850    0.75710    0.67570    1.000
    O21      O        0.17998    0.75678    0.75440    1.000
    O22      O        0.12750    0.88600    0.71050    1.000
    F11      F        0.99140    0.67990    0.26240    1.000
    F12      F        0.92440    0.66540    0.39860    1.000
    F13      F        0.08430    0.79150    0.58210    1.000
    F14      F        0.16930    0.73670    0.61340    1.000
    F15      F        0.27480    0.73480    0.38140    1.000
    F16      F        0.16810    0.62390    0.29630    1.000
    F17      F        0.19860    0.70850    0.69860    1.000
    F18      F        0.14460    0.96600    0.71750    1.000
    C36      C        0.06560    0.69520    0.39920    1.000
    C37      C        0.07220    0.71090    0.44220    1.000
    H14      H        0.05250    0.71550    0.45580    1.000
    C38      C        0.10820    0.71950    0.46470    1.000
    C39      C        0.13770    0.71260    0.44440    1.000
    H15      H        0.16180    0.71840    0.45950    1.000
    C40      C        0.13110    0.69690    0.40140    1.000
    C41      C        0.09510    0.68820    0.37890    1.000
    H16      H        0.09070    0.67770    0.35020    1.000
    C42      C        0.02830    0.68780    0.37400    1.000
    C43      C        0.99340    0.68030    0.39800    1.000
    H17      H        0.99400    0.68040    0.42890    1.000
    C44      C        0.95740    0.67260    0.37600    1.000
    C45      C        0.95640    0.67240    0.32990    1.000
    C46      C        0.99140    0.68000    0.30590    1.000
    C47      C        0.02730    0.68760    0.32790    1.000
    H18      H        0.05070    0.69260    0.31190    1.000
    C48      C        0.11460    0.73140    0.51280    1.000
    C49      C        0.13980    0.72580    0.54270    1.000
    H19      H        0.15270    0.71090    0.53420    1.000
    C50      C        0.14570    0.74220    0.58520    1.000
    C51      C        0.12650    0.76440    0.59780    1.000
    C52      C        0.10130    0.77010    0.56800    1.000
    C53      C        0.09540    0.75370    0.52550    1.000
    H20      H        0.07860    0.75750    0.50550    1.000
    C54      C        0.16460    0.68890    0.37990    1.000
    C55      C        0.15330    0.65860    0.34750    1.000
    H21      H        0.12550    0.64160    0.34020    1.000
    C56      C        0.18360    0.65370    0.32580    1.000
    C57      C        0.22520    0.67920    0.33670    1.000
    C58      C        0.23650    0.70950    0.36920    1.000
    C59      C        0.20620    0.71430    0.39080    1.000
    H22      H        0.21370    0.73450    0.41250    1.000
    C60      C        0.91930    0.67020    0.30760    1.000
    C61      C        0.13960    0.78490    0.64230    1.000
    C62      C        0.25860    0.67700    0.31110    1.000
    C63      C        0.25310    0.69782    0.72350    1.000
    H23      H        0.24400    0.67430    0.70600    1.000
    C64      C        0.23150    0.71974    0.72340    1.000
    C65      C        0.08519    0.97379    0.73290    1.000
    H24      H        0.09750    0.00060    0.72150    1.000
    C66      C        0.10696    0.95205    0.73290    1.000
    O23      O        0.25220    0.65710    0.27310    1.000
    O24      O        0.28800    0.67310    0.33110    1.000
    F19      F        0.23700    0.65940    0.41070    1.000
    F20      F        0.20770    0.70330    0.27130    1.000
    C67      C        0.18820    0.67590    0.40350    1.000
    H25      H        0.18350    0.67020    0.43360    1.000
    C68      C        0.21900    0.67180    0.38200    1.000
    C69      C        0.20270    0.69370    0.31350    1.000
    C70      C        0.17130    0.69700    0.33470    1.000
    H26      H        0.15470    0.70450    0.31870    1.000
    Zn9      Zn       0.20760    0.83530    0.70670    1.000
    Zn10     Zn       0.11050    0.80840    0.72140    1.000
    O25      O        0.29040    0.71460    0.30440    1.000
    O26      O        0.24200    0.63630    0.31140    1.000
    O27      O        0.92830    0.70180    0.27930    1.000
    O28      O        0.88540    0.63250    0.31500    1.000
    O29      O        0.10760    0.78780    0.65980    1.000
    O30      O        0.17960    0.79940    0.65440    1.000
    O31      O        0.09070    0.84290    0.74400    1.000
    O32      O        0.21290    0.78680    0.70910    1.000
    Zn11     Zn       0.22507    0.36675    0.73877    1.000
    Zn12     Zn       0.13965    0.29765    0.69821    1.000
    Zn13     Zn       0.34199    0.62298    0.21812    1.000
    O33      O        0.35670    0.26160    0.27310    1.000
    O34      O        0.30290    0.20940    0.31960    1.000
    O35      O        0.17610    0.32170    0.64530    1.000
    O36      O        0.24290    0.37140    0.67570    1.000
    O37      O        0.24322    0.42320    0.75440    1.000
    O38      O        0.11400    0.24150    0.71050    1.000
    F21      F        0.32010    0.31150    0.26240    1.000
    F22      F        0.33460    0.25900    0.39860    1.000
    F23      F        0.20850    0.29280    0.58210    1.000
    F24      F        0.26330    0.43260    0.61340    1.000
    F25      F        0.26520    0.54000    0.38140    1.000
    F26      F        0.37610    0.54420    0.29630    1.000
    F27      F        0.29150    0.49010    0.69860    1.000
    F28      F        0.03400    0.17860    0.71750    1.000
    C71      C        0.30480    0.37040    0.39920    1.000
    C72      C        0.28910    0.36130    0.44220    1.000
    H27      H        0.28450    0.33700    0.45580    1.000
    C73      C        0.28050    0.38870    0.46470    1.000
    C74      C        0.28740    0.42510    0.44440    1.000
    H28      H        0.28160    0.44340    0.45950    1.000
    C75      C        0.30310    0.43420    0.40140    1.000
    C76      C        0.31180    0.40690    0.37890    1.000
    H29      H        0.32230    0.41300    0.35020    1.000
    C77      C        0.31220    0.34050    0.37400    1.000
    C78      C        0.31970    0.31310    0.39800    1.000
    H30      H        0.31960    0.31360    0.42890    1.000
    C79      C        0.32740    0.28480    0.37600    1.000
    C80      C        0.32760    0.28400    0.32990    1.000
    C81      C        0.32000    0.31140    0.30590    1.000
    C82      C        0.31240    0.33970    0.32790    1.000
    H31      H        0.30740    0.35810    0.31190    1.000
    C83      C        0.26860    0.38320    0.51280    1.000
    C84      C        0.27420    0.41400    0.54270    1.000
    H32      H        0.28910    0.44180    0.53420    1.000
    C85      C        0.25780    0.40350    0.58520    1.000
    C86      C        0.23560    0.36210    0.59780    1.000
    C87      C        0.22990    0.33120    0.56800    1.000
    C88      C        0.24630    0.34170    0.52550    1.000
    H33      H        0.24250    0.32110    0.50550    1.000
    C89      C        0.31110    0.47570    0.37990    1.000
    C90      C        0.34140    0.49470    0.34750    1.000
    H34      H        0.35840    0.48390    0.34020    1.000
    C91      C        0.34630    0.52990    0.32580    1.000
    C92      C        0.32080    0.54600    0.33670    1.000
    C93      C        0.29050    0.52700    0.36920    1.000
    C94      C        0.28570    0.49190    0.39080    1.000
    H35      H        0.26550    0.47920    0.41250    1.000
    C95      C        0.32980    0.24910    0.30760    1.000
    C96      C        0.21510    0.35470    0.64230    1.000
    C97      C        0.32300    0.58160    0.31110    1.000
    C98      C        0.30218    0.55528    0.72350    1.000
    H36      H        0.32570    0.56970    0.70600    1.000
    C99      C        0.28026    0.51176    0.72340    1.000
    C100     C        0.02621    0.11140    0.73290    1.000
    H37      H        0.99940    0.09690    0.72150    1.000
    C101     C        0.04795    0.15491    0.73290    1.000
    O39      O        0.34290    0.59510    0.27310    1.000
    O40      O        0.32690    0.61490    0.33110    1.000
    F29      F        0.34060    0.57760    0.41070    1.000
    F30      F        0.29670    0.50440    0.27130    1.000
    C102     C        0.32410    0.51230    0.40350    1.000
    H38      H        0.32980    0.51330    0.43360    1.000
    C103     C        0.32820    0.54720    0.38200    1.000
    C104     C        0.30630    0.50900    0.31350    1.000
    C105     C        0.30300    0.47430    0.33470    1.000
    H39      H        0.29550    0.45020    0.31870    1.000
    Zn14     Zn       0.16470    0.37230    0.70670    1.000
    Zn15     Zn       0.19160    0.30210    0.72140    1.000
    O41      O        0.28540    0.57580    0.30440    1.000
    O42      O        0.36370    0.60570    0.31140    1.000
    O43      O        0.29820    0.22650    0.27930    1.000
    O44      O        0.36750    0.25290    0.31500    1.000
    O45      O        0.21220    0.31980    0.65980    1.000
    O46      O        0.20060    0.38020    0.65440    1.000
    O47      O        0.15710    0.24780    0.74400    1.000
    O48      O        0.21320    0.42610    0.70910    1.000
    Zn16     Zn       0.14168    0.36675    0.76123    1.000
    Zn17     Zn       0.15800    0.29765    0.80179    1.000
    Zn18     Zn       0.28099    0.62298    0.28188    1.000
    O49      O        0.90490    0.26160    0.22690    1.000
    O50      O        0.90650    0.20940    0.18040    1.000
    O51      O        0.14560    0.32170    0.85470    1.000
    O52      O        0.12850    0.37140    0.82430    1.000
    O53      O        0.17998    0.42320    0.74560    1.000
    O54      O        0.12750    0.24150    0.78950    1.000
    F31      F        0.99140    0.31150    0.23760    1.000
    F32      F        0.92440    0.25900    0.10140    1.000
    F33      F        0.08430    0.29280    0.91790    1.000
    F34      F        0.16930    0.43260    0.88660    1.000
    F35      F        0.27480    0.54000    0.11860    1.000
    F36      F        0.16810    0.54420    0.20370    1.000
    F37      F        0.19860    0.49010    0.80140    1.000
    F38      F        0.14460    0.17860    0.78250    1.000
    C106     C        0.06560    0.37040    0.10080    1.000
    C107     C        0.07220    0.36130    0.05780    1.000
    H40      H        0.05250    0.33700    0.04420    1.000
    C108     C        0.10820    0.38870    0.03530    1.000
    C109     C        0.13770    0.42510    0.05560    1.000
    H41      H        0.16180    0.44340    0.04050    1.000
    C110     C        0.13110    0.43420    0.09860    1.000
    C111     C        0.09510    0.40690    0.12110    1.000
    H42      H        0.09070    0.41300    0.14980    1.000
    C112     C        0.02830    0.34050    0.12600    1.000
    C113     C        0.99340    0.31310    0.10200    1.000
    H43      H        0.99400    0.31360    0.07110    1.000
    C114     C        0.95740    0.28480    0.12400    1.000
    C115     C        0.95640    0.28400    0.17010    1.000
    C116     C        0.99140    0.31140    0.19410    1.000
    C117     C        0.02730    0.33970    0.17210    1.000
    H44      H        0.05070    0.35810    0.18810    1.000
    C118     C        0.11460    0.38320    0.98720    1.000
    C119     C        0.13980    0.41400    0.95730    1.000
    H45      H        0.15270    0.44180    0.96580    1.000
    C120     C        0.14570    0.40350    0.91480    1.000
    C121     C        0.12650    0.36210    0.90220    1.000
    C122     C        0.10130    0.33120    0.93200    1.000
    C123     C        0.09540    0.34170    0.97450    1.000
    H46      H        0.07860    0.32110    0.99450    1.000
    C124     C        0.16460    0.47570    0.12010    1.000
    C125     C        0.15330    0.49470    0.15250    1.000
    H47      H        0.12550    0.48390    0.15980    1.000
    C126     C        0.18360    0.52990    0.17420    1.000
    C127     C        0.22520    0.54600    0.16330    1.000
    C128     C        0.23650    0.52700    0.13080    1.000
    C129     C        0.20620    0.49190    0.10920    1.000
    H48      H        0.21370    0.47920    0.08750    1.000
    C130     C        0.91930    0.24910    0.19240    1.000
    C131     C        0.13960    0.35470    0.85770    1.000
    C132     C        0.25860    0.58160    0.18890    1.000
    C133     C        0.25310    0.55528    0.77650    1.000
    H49      H        0.24400    0.56970    0.79400    1.000
    C134     C        0.23150    0.51176    0.77660    1.000
    C135     C        0.08519    0.11140    0.76710    1.000
    H50      H        0.09750    0.09690    0.77850    1.000
    C136     C        0.10696    0.15491    0.76710    1.000
    O55      O        0.25220    0.59510    0.22690    1.000
    O56      O        0.28800    0.61490    0.16890    1.000
    F39      F        0.23700    0.57760    0.08930    1.000
    F40      F        0.20770    0.50440    0.22870    1.000
    C137     C        0.18820    0.51230    0.09650    1.000
    H51      H        0.18350    0.51330    0.06640    1.000
    C138     C        0.21900    0.54720    0.11800    1.000
    C139     C        0.20270    0.50900    0.18650    1.000
    C140     C        0.17130    0.47430    0.16530    1.000
    H52      H        0.15470    0.45020    0.18130    1.000
    Zn19     Zn       0.20760    0.37230    0.79330    1.000
    Zn20     Zn       0.11050    0.30210    0.77860    1.000
    O57      O        0.29040    0.57580    0.19560    1.000
    O58      O        0.24200    0.60570    0.18860    1.000
    O59      O        0.92830    0.22650    0.22070    1.000
    O60      O        0.88540    0.25290    0.18500    1.000
    O61      O        0.10760    0.31980    0.84020    1.000
    O62      O        0.17960    0.38020    0.84560    1.000
    O63      O        0.09070    0.24780    0.75600    1.000
    O64      O        0.21290    0.42610    0.79090    1.000
    Zn21     Zn       0.22507    0.85832    0.76123    1.000
    Zn22     Zn       0.13965    0.84200    0.80179    1.000
    Zn23     Zn       0.34199    0.71901    0.28188    1.000
    O65      O        0.35670    0.09510    0.22690    1.000
    O66      O        0.30290    0.09350    0.18040    1.000
    O67      O        0.17610    0.85440    0.85470    1.000
    O68      O        0.24290    0.87150    0.82430    1.000
    O69      O        0.24322    0.82002    0.74560    1.000
    O70      O        0.11400    0.87250    0.78950    1.000
    F41      F        0.32010    0.00860    0.23760    1.000
    F42      F        0.33460    0.07560    0.10140    1.000
    F43      F        0.20850    0.91570    0.91790    1.000
    F44      F        0.26330    0.83070    0.88660    1.000
    F45      F        0.26520    0.72520    0.11860    1.000
    F46      F        0.37610    0.83190    0.20370    1.000
    F47      F        0.29150    0.80140    0.80140    1.000
    F48      F        0.03400    0.85540    0.78250    1.000
    C141     C        0.30480    0.93440    0.10080    1.000
    C142     C        0.28910    0.92780    0.05780    1.000
    H53      H        0.28450    0.94750    0.04420    1.000
    C143     C        0.28050    0.89180    0.03530    1.000
    C144     C        0.28740    0.86230    0.05560    1.000
    H54      H        0.28160    0.83820    0.04050    1.000
    C145     C        0.30310    0.86890    0.09860    1.000
    C146     C        0.31180    0.90490    0.12110    1.000
    H55      H        0.32230    0.90930    0.14980    1.000
    C147     C        0.31220    0.97170    0.12600    1.000
    C148     C        0.31970    0.00660    0.10200    1.000
    H56      H        0.31960    0.00600    0.07110    1.000
    C149     C        0.32740    0.04260    0.12400    1.000
    C150     C        0.32760    0.04360    0.17010    1.000
    C151     C        0.32000    0.00860    0.19410    1.000
    C152     C        0.31240    0.97270    0.17210    1.000
    H57      H        0.30740    0.94930    0.18810    1.000
    C153     C        0.26860    0.88540    0.98720    1.000
    C154     C        0.27420    0.86020    0.95730    1.000
    H58      H        0.28910    0.84730    0.96580    1.000
    C155     C        0.25780    0.85430    0.91480    1.000
    C156     C        0.23560    0.87350    0.90220    1.000
    C157     C        0.22990    0.89870    0.93200    1.000
    C158     C        0.24630    0.90460    0.97450    1.000
    H59      H        0.24250    0.92140    0.99450    1.000
    C159     C        0.31110    0.83540    0.12010    1.000
    C160     C        0.34140    0.84670    0.15250    1.000
    H60      H        0.35840    0.87450    0.15980    1.000
    C161     C        0.34630    0.81640    0.17420    1.000
    C162     C        0.32080    0.77480    0.16330    1.000
    C163     C        0.29050    0.76350    0.13080    1.000
    C164     C        0.28570    0.79380    0.10920    1.000
    H61      H        0.26550    0.78630    0.08750    1.000
    C165     C        0.32980    0.08070    0.19240    1.000
    C166     C        0.21510    0.86040    0.85770    1.000
    C167     C        0.32300    0.74140    0.18890    1.000
    C168     C        0.30218    0.74690    0.77650    1.000
    H62      H        0.32570    0.75600    0.79400    1.000
    C169     C        0.28026    0.76850    0.77660    1.000
    C170     C        0.02621    0.91481    0.76710    1.000
    H63      H        0.99940    0.90250    0.77850    1.000
    C171     C        0.04795    0.89304    0.76710    1.000
    O71      O        0.34290    0.74780    0.22690    1.000
    O72      O        0.32690    0.71200    0.16890    1.000
    F49      F        0.34060    0.76300    0.08930    1.000
    F50      F        0.29670    0.79230    0.22870    1.000
    C172     C        0.32410    0.81180    0.09650    1.000
    H64      H        0.32980    0.81650    0.06640    1.000
    C173     C        0.32820    0.78100    0.11800    1.000
    C174     C        0.30630    0.79730    0.18650    1.000
    C175     C        0.30300    0.82870    0.16530    1.000
    H65      H        0.29550    0.84530    0.18130    1.000
    Zn24     Zn       0.16470    0.79240    0.79330    1.000
    Zn25     Zn       0.19160    0.88950    0.77860    1.000
    O73      O        0.28540    0.70960    0.19560    1.000
    O74      O        0.36370    0.75800    0.18860    1.000
    O75      O        0.29820    0.07170    0.22070    1.000
    O76      O        0.36750    0.11460    0.18500    1.000
    O77      O        0.21220    0.89240    0.84020    1.000
    O78      O        0.20060    0.82040    0.84560    1.000
    O79      O        0.15710    0.90930    0.75600    1.000
    O80      O        0.21320    0.78710    0.79090    1.000
    Zn26     Zn       0.63325    0.77493    0.76123    1.000
    Zn27     Zn       0.70235    0.86035    0.80179    1.000
    Zn28     Zn       0.37702    0.65801    0.28188    1.000
    O81      O        0.73840    0.64330    0.22690    1.000
    O82      O        0.79060    0.69710    0.18040    1.000
    O83      O        0.67830    0.82390    0.85470    1.000
    O84      O        0.62860    0.75710    0.82430    1.000
    O85      O        0.57680    0.75678    0.74560    1.000
    O86      O        0.75850    0.88600    0.78950    1.000
    F51      F        0.68850    0.67990    0.23760    1.000
    F52      F        0.74100    0.66540    0.10140    1.000
    F53      F        0.70720    0.79150    0.91790    1.000
    F54      F        0.56740    0.73670    0.88660    1.000
    F55      F        0.46000    0.73480    0.11860    1.000
    F56      F        0.45580    0.62390    0.20370    1.000
    F57      F        0.50990    0.70850    0.80140    1.000
    F58      F        0.82140    0.96600    0.78250    1.000
    C176     C        0.62960    0.69520    0.10080    1.000
    C177     C        0.63870    0.71090    0.05780    1.000
    H66      H        0.66300    0.71550    0.04420    1.000
    C178     C        0.61130    0.71950    0.03530    1.000
    C179     C        0.57490    0.71260    0.05560    1.000
    H67      H        0.55660    0.71840    0.04050    1.000
    C180     C        0.56580    0.69690    0.09860    1.000
    C181     C        0.59310    0.68820    0.12110    1.000
    H68      H        0.58700    0.67770    0.14980    1.000
    C182     C        0.65950    0.68780    0.12600    1.000
    C183     C        0.68690    0.68030    0.10200    1.000
    H69      H        0.68640    0.68040    0.07110    1.000
    C184     C        0.71520    0.67260    0.12400    1.000
    C185     C        0.71600    0.67240    0.17010    1.000
    C186     C        0.68860    0.68000    0.19410    1.000
    C187     C        0.66030    0.68760    0.17210    1.000
    H70      H        0.64190    0.69260    0.18810    1.000
    C188     C        0.61680    0.73140    0.98720    1.000
    C189     C        0.58600    0.72580    0.95730    1.000
    H71      H        0.55820    0.71090    0.96580    1.000
    C190     C        0.59650    0.74220    0.91480    1.000
    C191     C        0.63790    0.76440    0.90220    1.000
    C192     C        0.66880    0.77010    0.93200    1.000
    C193     C        0.65830    0.75370    0.97450    1.000
    H72      H        0.67890    0.75750    0.99450    1.000
    C194     C        0.52430    0.68890    0.12010    1.000
    C195     C        0.50530    0.65860    0.15250    1.000
    H73      H        0.51610    0.64160    0.15980    1.000
    C196     C        0.47010    0.65370    0.17420    1.000
    C197     C        0.45400    0.67920    0.16330    1.000
    C198     C        0.47300    0.70950    0.13080    1.000
    C199     C        0.50810    0.71430    0.10920    1.000
    H74      H        0.52080    0.73450    0.08750    1.000
    C200     C        0.75090    0.67020    0.19240    1.000
    C201     C        0.64530    0.78490    0.85770    1.000
    C202     C        0.41840    0.67700    0.18890    1.000
    C203     C        0.44472    0.69782    0.77650    1.000
    H75      H        0.43030    0.67430    0.79400    1.000
    C204     C        0.48824    0.71974    0.77660    1.000
    C205     C        0.88860    0.97379    0.76710    1.000
    H76      H        0.90310    0.00060    0.77850    1.000
    C206     C        0.84509    0.95205    0.76710    1.000
    O87      O        0.40490    0.65710    0.22690    1.000
    O88      O        0.38510    0.67310    0.16890    1.000
    F59      F        0.42240    0.65940    0.08930    1.000
    F60      F        0.49560    0.70330    0.22870    1.000
    C207     C        0.48770    0.67590    0.09650    1.000
    H77      H        0.48670    0.67020    0.06640    1.000
    C208     C        0.45280    0.67180    0.11800    1.000
    C209     C        0.49100    0.69370    0.18650    1.000
    C210     C        0.52570    0.69700    0.16530    1.000
    H78      H        0.54980    0.70450    0.18130    1.000
    Zn29     Zn       0.62770    0.83530    0.79330    1.000
    Zn30     Zn       0.69790    0.80840    0.77860    1.000
    O89      O        0.42420    0.71460    0.19560    1.000
    O90      O        0.39430    0.63630    0.18860    1.000
    O91      O        0.77350    0.70180    0.22070    1.000
    O92      O        0.74710    0.63250    0.18500    1.000
    O93      O        0.68020    0.78780    0.84020    1.000
    O94      O        0.61980    0.79940    0.84560    1.000
    O95      O        0.75220    0.84290    0.75600    1.000
    O96      O        0.57390    0.78680    0.79090    1.000
    Zn31     Zn       0.36675    0.14168    0.26123    1.000
    Zn32     Zn       0.29765    0.15800    0.30179    1.000
    Zn33     Zn       0.62298    0.28099    0.78188    1.000
    O97      O        0.26160    0.90490    0.72690    1.000
    O98      O        0.20940    0.90650    0.68040    1.000
    O99      O        0.32170    0.14560    0.35470    1.000
    O100     O        0.37140    0.12850    0.32430    1.000
    O101     O        0.42320    0.17998    0.24560    1.000
    O102     O        0.24150    0.12750    0.28950    1.000
    F61      F        0.31150    0.99140    0.73760    1.000
    F62      F        0.25900    0.92440    0.60140    1.000
    F63      F        0.29280    0.08430    0.41790    1.000
    F64      F        0.43260    0.16930    0.38660    1.000
    F65      F        0.54000    0.27480    0.61860    1.000
    F66      F        0.54420    0.16810    0.70370    1.000
    F67      F        0.49010    0.19860    0.30140    1.000
    F68      F        0.17860    0.14460    0.28250    1.000
    C211     C        0.37040    0.06560    0.60080    1.000
    C212     C        0.36130    0.07220    0.55780    1.000
    H79      H        0.33700    0.05250    0.54420    1.000
    C213     C        0.38870    0.10820    0.53530    1.000
    C214     C        0.42510    0.13770    0.55560    1.000
    H80      H        0.44340    0.16180    0.54050    1.000
    C215     C        0.43420    0.13110    0.59860    1.000
    C216     C        0.40690    0.09510    0.62110    1.000
    H81      H        0.41300    0.09070    0.64980    1.000
    C217     C        0.34050    0.02830    0.62600    1.000
    C218     C        0.31310    0.99340    0.60200    1.000
    H82      H        0.31360    0.99400    0.57110    1.000
    C219     C        0.28480    0.95740    0.62400    1.000
    C220     C        0.28400    0.95640    0.67010    1.000
    C221     C        0.31140    0.99140    0.69410    1.000
    C222     C        0.33970    0.02730    0.67210    1.000
    H83      H        0.35810    0.05070    0.68810    1.000
    C223     C        0.38320    0.11460    0.48720    1.000
    C224     C        0.41400    0.13980    0.45730    1.000
    H84      H        0.44180    0.15270    0.46580    1.000
    C225     C        0.40350    0.14570    0.41480    1.000
    C226     C        0.36210    0.12650    0.40220    1.000
    C227     C        0.33120    0.10130    0.43200    1.000
    C228     C        0.34170    0.09540    0.47450    1.000
    H85      H        0.32110    0.07860    0.49450    1.000
    C229     C        0.47570    0.16460    0.62010    1.000
    C230     C        0.49470    0.15330    0.65250    1.000
    H86      H        0.48390    0.12550    0.65980    1.000
    C231     C        0.52990    0.18360    0.67420    1.000
    C232     C        0.54600    0.22520    0.66330    1.000
    C233     C        0.52700    0.23650    0.63080    1.000
    C234     C        0.49190    0.20620    0.60920    1.000
    H87      H        0.47920    0.21370    0.58750    1.000
    C235     C        0.24910    0.91930    0.69240    1.000
    C236     C        0.35470    0.13960    0.35770    1.000
    C237     C        0.58160    0.25860    0.68890    1.000
    C238     C        0.55528    0.25310    0.27650    1.000
    H88      H        0.56970    0.24400    0.29400    1.000
    C239     C        0.51176    0.23150    0.27660    1.000
    C240     C        0.11140    0.08519    0.26710    1.000
    H89      H        0.09690    0.09750    0.27850    1.000
    C241     C        0.15491    0.10696    0.26710    1.000
    O103     O        0.59510    0.25220    0.72690    1.000
    O104     O        0.61490    0.28800    0.66890    1.000
    F69      F        0.57760    0.23700    0.58930    1.000
    F70      F        0.50440    0.20770    0.72870    1.000
    C242     C        0.51230    0.18820    0.59650    1.000
    H90      H        0.51330    0.18350    0.56640    1.000
    C243     C        0.54720    0.21900    0.61800    1.000
    C244     C        0.50900    0.20270    0.68650    1.000
    C245     C        0.47430    0.17130    0.66530    1.000
    H91      H        0.45020    0.15470    0.68130    1.000
    Zn34     Zn       0.37230    0.20760    0.29330    1.000
    Zn35     Zn       0.30210    0.11050    0.27860    1.000
    O105     O        0.57580    0.29040    0.69560    1.000
    O106     O        0.60570    0.24200    0.68860    1.000
    O107     O        0.22650    0.92830    0.72070    1.000
    O108     O        0.25290    0.88540    0.68500    1.000
    O109     O        0.31980    0.10760    0.34020    1.000
    O110     O        0.38020    0.17960    0.34560    1.000
    O111     O        0.24780    0.09070    0.25600    1.000
    O112     O        0.42610    0.21290    0.29090    1.000
    Zn36     Zn       0.85832    0.22507    0.26123    1.000
    Zn37     Zn       0.84200    0.13965    0.30179    1.000
    Zn38     Zn       0.71901    0.34199    0.78188    1.000
    O113     O        0.09510    0.35670    0.72690    1.000
    O114     O        0.09350    0.30290    0.68040    1.000
    O115     O        0.85440    0.17610    0.35470    1.000
    O116     O        0.87150    0.24290    0.32430    1.000
    O117     O        0.82002    0.24322    0.24560    1.000
    O118     O        0.87250    0.11400    0.28950    1.000
    F71      F        0.00860    0.32010    0.73760    1.000
    F72      F        0.07560    0.33460    0.60140    1.000
    F73      F        0.91570    0.20850    0.41790    1.000
    F74      F        0.83070    0.26330    0.38660    1.000
    F75      F        0.72520    0.26520    0.61860    1.000
    F76      F        0.83190    0.37610    0.70370    1.000
    F77      F        0.80140    0.29150    0.30140    1.000
    F78      F        0.85540    0.03400    0.28250    1.000
    C246     C        0.93440    0.30480    0.60080    1.000
    C247     C        0.92780    0.28910    0.55780    1.000
    H92      H        0.94750    0.28450    0.54420    1.000
    C248     C        0.89180    0.28050    0.53530    1.000
    C249     C        0.86230    0.28740    0.55560    1.000
    H93      H        0.83820    0.28160    0.54050    1.000
    C250     C        0.86890    0.30310    0.59860    1.000
    C251     C        0.90490    0.31180    0.62110    1.000
    H94      H        0.90930    0.32230    0.64980    1.000
    C252     C        0.97170    0.31220    0.62600    1.000
    C253     C        0.00660    0.31970    0.60200    1.000
    H95      H        0.00600    0.31960    0.57110    1.000
    C254     C        0.04260    0.32740    0.62400    1.000
    C255     C        0.04360    0.32760    0.67010    1.000
    C256     C        0.00860    0.32000    0.69410    1.000
    C257     C        0.97270    0.31240    0.67210    1.000
    H96      H        0.94930    0.30740    0.68810    1.000
    C258     C        0.88540    0.26860    0.48720    1.000
    C259     C        0.86020    0.27420    0.45730    1.000
    H97      H        0.84730    0.28910    0.46580    1.000
    C260     C        0.85430    0.25780    0.41480    1.000
    C261     C        0.87350    0.23560    0.40220    1.000
    C262     C        0.89870    0.22990    0.43200    1.000
    C263     C        0.90460    0.24630    0.47450    1.000
    H98      H        0.92140    0.24250    0.49450    1.000
    C264     C        0.83540    0.31110    0.62010    1.000
    C265     C        0.84670    0.34140    0.65250    1.000
    H99      H        0.87450    0.35840    0.65980    1.000
    C266     C        0.81640    0.34630    0.67420    1.000
    C267     C        0.77480    0.32080    0.66330    1.000
    C268     C        0.76350    0.29050    0.63080    1.000
    C269     C        0.79380    0.28570    0.60920    1.000
    H100     H        0.78630    0.26550    0.58750    1.000
    C270     C        0.08070    0.32980    0.69240    1.000
    C271     C        0.86040    0.21510    0.35770    1.000
    C272     C        0.74140    0.32300    0.68890    1.000
    C273     C        0.74690    0.30218    0.27650    1.000
    H101     H        0.75600    0.32570    0.29400    1.000
    C274     C        0.76850    0.28026    0.27660    1.000
    C275     C        0.91481    0.02621    0.26710    1.000
    H102     H        0.90250    0.99940    0.27850    1.000
    C276     C        0.89304    0.04795    0.26710    1.000
    O119     O        0.74780    0.34290    0.72690    1.000
    O120     O        0.71200    0.32690    0.66890    1.000
    F79      F        0.76300    0.34060    0.58930    1.000
    F80      F        0.79230    0.29670    0.72870    1.000
    C277     C        0.81180    0.32410    0.59650    1.000
    H103     H        0.81650    0.32980    0.56640    1.000
    C278     C        0.78100    0.32820    0.61800    1.000
    C279     C        0.79730    0.30630    0.68650    1.000
    C280     C        0.82870    0.30300    0.66530    1.000
    H104     H        0.84530    0.29550    0.68130    1.000
    Zn39     Zn       0.79240    0.16470    0.29330    1.000
    Zn40     Zn       0.88950    0.19160    0.27860    1.000
    O121     O        0.70960    0.28540    0.69560    1.000
    O122     O        0.75800    0.36370    0.68860    1.000
    O123     O        0.07170    0.29820    0.72070    1.000
    O124     O        0.11460    0.36750    0.68500    1.000
    O125     O        0.89240    0.21220    0.34020    1.000
    O126     O        0.82040    0.20060    0.34560    1.000
    O127     O        0.90930    0.15710    0.25600    1.000
    O128     O        0.78710    0.21320    0.29090    1.000
    Zn41     Zn       0.77493    0.63325    0.26123    1.000
    Zn42     Zn       0.86035    0.70235    0.30179    1.000
    Zn43     Zn       0.65801    0.37702    0.78188    1.000
    O129     O        0.64330    0.73840    0.72690    1.000
    O130     O        0.69710    0.79060    0.68040    1.000
    O131     O        0.82390    0.67830    0.35470    1.000
    O132     O        0.75710    0.62860    0.32430    1.000
    O133     O        0.75678    0.57680    0.24560    1.000
    O134     O        0.88600    0.75850    0.28950    1.000
    F81      F        0.67990    0.68850    0.73760    1.000
    F82      F        0.66540    0.74100    0.60140    1.000
    F83      F        0.79150    0.70720    0.41790    1.000
    F84      F        0.73670    0.56740    0.38660    1.000
    F85      F        0.73480    0.46000    0.61860    1.000
    F86      F        0.62390    0.45580    0.70370    1.000
    F87      F        0.70850    0.50990    0.30140    1.000
    F88      F        0.96600    0.82140    0.28250    1.000
    C281     C        0.69520    0.62960    0.60080    1.000
    C282     C        0.71090    0.63870    0.55780    1.000
    H105     H        0.71550    0.66300    0.54420    1.000
    C283     C        0.71950    0.61130    0.53530    1.000
    C284     C        0.71260    0.57490    0.55560    1.000
    H106     H        0.71840    0.55660    0.54050    1.000
    C285     C        0.69690    0.56580    0.59860    1.000
    C286     C        0.68820    0.59310    0.62110    1.000
    H107     H        0.67770    0.58700    0.64980    1.000
    C287     C        0.68780    0.65950    0.62600    1.000
    C288     C        0.68030    0.68690    0.60200    1.000
    H108     H        0.68040    0.68640    0.57110    1.000
    C289     C        0.67260    0.71520    0.62400    1.000
    C290     C        0.67240    0.71600    0.67010    1.000
    C291     C        0.68000    0.68860    0.69410    1.000
    C292     C        0.68760    0.66030    0.67210    1.000
    H109     H        0.69260    0.64190    0.68810    1.000
    C293     C        0.73140    0.61680    0.48720    1.000
    C294     C        0.72580    0.58600    0.45730    1.000
    H110     H        0.71090    0.55820    0.46580    1.000
    C295     C        0.74220    0.59650    0.41480    1.000
    C296     C        0.76440    0.63790    0.40220    1.000
    C297     C        0.77010    0.66880    0.43200    1.000
    C298     C        0.75370    0.65830    0.47450    1.000
    H111     H        0.75750    0.67890    0.49450    1.000
    C299     C        0.68890    0.52430    0.62010    1.000
    C300     C        0.65860    0.50530    0.65250    1.000
    H112     H        0.64160    0.51610    0.65980    1.000
    C301     C        0.65370    0.47010    0.67420    1.000
    C302     C        0.67920    0.45400    0.66330    1.000
    C303     C        0.70950    0.47300    0.63080    1.000
    C304     C        0.71430    0.50810    0.60920    1.000
    H113     H        0.73450    0.52080    0.58750    1.000
    C305     C        0.67020    0.75090    0.69240    1.000
    C306     C        0.78490    0.64530    0.35770    1.000
    C307     C        0.67700    0.41840    0.68890    1.000
    C308     C        0.69782    0.44472    0.27650    1.000
    H114     H        0.67430    0.43030    0.29400    1.000
    C309     C        0.71974    0.48824    0.27660    1.000
    C310     C        0.97379    0.88860    0.26710    1.000
    H115     H        0.00060    0.90310    0.27850    1.000
    C311     C        0.95205    0.84509    0.26710    1.000
    O135     O        0.65710    0.40490    0.72690    1.000
    O136     O        0.67310    0.38510    0.66890    1.000
    F89      F        0.65940    0.42240    0.58930    1.000
    F90      F        0.70330    0.49560    0.72870    1.000
    C312     C        0.67590    0.48770    0.59650    1.000
    H116     H        0.67020    0.48670    0.56640    1.000
    C313     C        0.67180    0.45280    0.61800    1.000
    C314     C        0.69370    0.49100    0.68650    1.000
    C315     C        0.69700    0.52570    0.66530    1.000
    H117     H        0.70450    0.54980    0.68130    1.000
    Zn44     Zn       0.83530    0.62770    0.29330    1.000
    Zn45     Zn       0.80840    0.69790    0.27860    1.000
    O137     O        0.71460    0.42420    0.69560    1.000
    O138     O        0.63630    0.39430    0.68860    1.000
    O139     O        0.70180    0.77350    0.72070    1.000
    O140     O        0.63250    0.74710    0.68500    1.000
    O141     O        0.78780    0.68020    0.34020    1.000
    O142     O        0.79940    0.61980    0.34560    1.000
    O143     O        0.84290    0.75220    0.25600    1.000
    O144     O        0.78680    0.57390    0.29090    1.000
    Zn46     Zn       0.85832    0.63325    0.23877    1.000
    Zn47     Zn       0.84200    0.70235    0.19821    1.000
    Zn48     Zn       0.71901    0.37702    0.71812    1.000
    O145     O        0.09510    0.73840    0.77310    1.000
    O146     O        0.09350    0.79060    0.81960    1.000
    O147     O        0.85440    0.67830    0.14530    1.000
    O148     O        0.87150    0.62860    0.17570    1.000
    O149     O        0.82002    0.57680    0.25440    1.000
    O150     O        0.87250    0.75850    0.21050    1.000
    F91      F        0.00860    0.68850    0.76240    1.000
    F92      F        0.07560    0.74100    0.89860    1.000
    F93      F        0.91570    0.70720    0.08210    1.000
    F94      F        0.83070    0.56740    0.11340    1.000
    F95      F        0.72520    0.46000    0.88140    1.000
    F96      F        0.83190    0.45580    0.79630    1.000
    F97      F        0.80140    0.50990    0.19860    1.000
    F98      F        0.85540    0.82140    0.21750    1.000
    C316     C        0.93440    0.62960    0.89920    1.000
    C317     C        0.92780    0.63870    0.94220    1.000
    H118     H        0.94750    0.66300    0.95580    1.000
    C318     C        0.89180    0.61130    0.96470    1.000
    C319     C        0.86230    0.57490    0.94440    1.000
    H119     H        0.83820    0.55660    0.95950    1.000
    C320     C        0.86890    0.56580    0.90140    1.000
    C321     C        0.90490    0.59310    0.87890    1.000
    H120     H        0.90930    0.58700    0.85020    1.000
    C322     C        0.97170    0.65950    0.87400    1.000
    C323     C        0.00660    0.68690    0.89800    1.000
    H121     H        0.00600    0.68640    0.92890    1.000
    C324     C        0.04260    0.71520    0.87600    1.000
    C325     C        0.04360    0.71600    0.82990    1.000
    C326     C        0.00860    0.68860    0.80590    1.000
    C327     C        0.97270    0.66030    0.82790    1.000
    H122     H        0.94930    0.64190    0.81190    1.000
    C328     C        0.88540    0.61680    0.01280    1.000
    C329     C        0.86020    0.58600    0.04270    1.000
    H123     H        0.84730    0.55820    0.03420    1.000
    C330     C        0.85430    0.59650    0.08520    1.000
    C331     C        0.87350    0.63790    0.09780    1.000
    C332     C        0.89870    0.66880    0.06800    1.000
    C333     C        0.90460    0.65830    0.02550    1.000
    H124     H        0.92140    0.67890    0.00550    1.000
    C334     C        0.83540    0.52430    0.87990    1.000
    C335     C        0.84670    0.50530    0.84750    1.000
    H125     H        0.87450    0.51610    0.84020    1.000
    C336     C        0.81640    0.47010    0.82580    1.000
    C337     C        0.77480    0.45400    0.83670    1.000
    C338     C        0.76350    0.47300    0.86920    1.000
    C339     C        0.79380    0.50810    0.89080    1.000
    H126     H        0.78630    0.52080    0.91250    1.000
    C340     C        0.08070    0.75090    0.80760    1.000
    C341     C        0.86040    0.64530    0.14230    1.000
    C342     C        0.74140    0.41840    0.81110    1.000
    C343     C        0.74690    0.44472    0.22350    1.000
    H127     H        0.75600    0.43030    0.20600    1.000
    C344     C        0.76850    0.48824    0.22340    1.000
    C345     C        0.91481    0.88860    0.23290    1.000
    H128     H        0.90250    0.90310    0.22150    1.000
    C346     C        0.89304    0.84509    0.23290    1.000
    O151     O        0.74780    0.40490    0.77310    1.000
    O152     O        0.71200    0.38510    0.83110    1.000
    F99      F        0.76300    0.42240    0.91070    1.000
    F100     F        0.79230    0.49560    0.77130    1.000
    C347     C        0.81180    0.48770    0.90350    1.000
    H129     H        0.81650    0.48670    0.93360    1.000
    C348     C        0.78100    0.45280    0.88200    1.000
    C349     C        0.79730    0.49100    0.81350    1.000
    C350     C        0.82870    0.52570    0.83470    1.000
    H130     H        0.84530    0.54980    0.81870    1.000
    Zn49     Zn       0.79240    0.62770    0.20670    1.000
    Zn50     Zn       0.88950    0.69790    0.22140    1.000
    O153     O        0.70960    0.42420    0.80440    1.000
    O154     O        0.75800    0.39430    0.81140    1.000
    O155     O        0.07170    0.77350    0.77930    1.000
    O156     O        0.11460    0.74710    0.81500    1.000
    O157     O        0.89240    0.68020    0.15980    1.000
    O158     O        0.82040    0.61980    0.15440    1.000
    O159     O        0.90930    0.75220    0.24400    1.000
    O160     O        0.78710    0.57390    0.20910    1.000
    Zn51     Zn       0.77493    0.14168    0.23877    1.000
    Zn52     Zn       0.86035    0.15800    0.19821    1.000
    Zn53     Zn       0.65801    0.28099    0.71812    1.000
    O161     O        0.64330    0.90490    0.77310    1.000
    O162     O        0.69710    0.90650    0.81960    1.000
    O163     O        0.82390    0.14560    0.14530    1.000
    O164     O        0.75710    0.12850    0.17570    1.000
    O165     O        0.75678    0.17998    0.25440    1.000
    O166     O        0.88600    0.12750    0.21050    1.000
    F101     F        0.67990    0.99140    0.76240    1.000
    F102     F        0.66540    0.92440    0.89860    1.000
    F103     F        0.79150    0.08430    0.08210    1.000
    F104     F        0.73670    0.16930    0.11340    1.000
    F105     F        0.73480    0.27480    0.88140    1.000
    F106     F        0.62390    0.16810    0.79630    1.000
    F107     F        0.70850    0.19860    0.19860    1.000
    F108     F        0.96600    0.14460    0.21750    1.000
    C351     C        0.69520    0.06560    0.89920    1.000
    C352     C        0.71090    0.07220    0.94220    1.000
    H131     H        0.71550    0.05250    0.95580    1.000
    C353     C        0.71950    0.10820    0.96470    1.000
    C354     C        0.71260    0.13770    0.94440    1.000
    H132     H        0.71840    0.16180    0.95950    1.000
    C355     C        0.69690    0.13110    0.90140    1.000
    C356     C        0.68820    0.09510    0.87890    1.000
    H133     H        0.67770    0.09070    0.85020    1.000
    C357     C        0.68780    0.02830    0.87400    1.000
    C358     C        0.68030    0.99340    0.89800    1.000
    H134     H        0.68040    0.99400    0.92890    1.000
    C359     C        0.67260    0.95740    0.87600    1.000
    C360     C        0.67240    0.95640    0.82990    1.000
    C361     C        0.68000    0.99140    0.80590    1.000
    C362     C        0.68760    0.02730    0.82790    1.000
    H135     H        0.69260    0.05070    0.81190    1.000
    C363     C        0.73140    0.11460    0.01280    1.000
    C364     C        0.72580    0.13980    0.04270    1.000
    H136     H        0.71090    0.15270    0.03420    1.000
    C365     C        0.74220    0.14570    0.08520    1.000
    C366     C        0.76440    0.12650    0.09780    1.000
    C367     C        0.77010    0.10130    0.06800    1.000
    C368     C        0.75370    0.09540    0.02550    1.000
    H137     H        0.75750    0.07860    0.00550    1.000
    C369     C        0.68890    0.16460    0.87990    1.000
    C370     C        0.65860    0.15330    0.84750    1.000
    H138     H        0.64160    0.12550    0.84020    1.000
    C371     C        0.65370    0.18360    0.82580    1.000
    C372     C        0.67920    0.22520    0.83670    1.000
    C373     C        0.70950    0.23650    0.86920    1.000
    C374     C        0.71430    0.20620    0.89080    1.000
    H139     H        0.73450    0.21370    0.91250    1.000
    C375     C        0.67020    0.91930    0.80760    1.000
    C376     C        0.78490    0.13960    0.14230    1.000
    C377     C        0.67700    0.25860    0.81110    1.000
    C378     C        0.69782    0.25310    0.22350    1.000
    H140     H        0.67430    0.24400    0.20600    1.000
    C379     C        0.71974    0.23150    0.22340    1.000
    C380     C        0.97379    0.08519    0.23290    1.000
    H141     H        0.00060    0.09750    0.22150    1.000
    C381     C        0.95205    0.10696    0.23290    1.000
    O167     O        0.65710    0.25220    0.77310    1.000
    O168     O        0.67310    0.28800    0.83110    1.000
    F109     F        0.65940    0.23700    0.91070    1.000
    F110     F        0.70330    0.20770    0.77130    1.000
    C382     C        0.67590    0.18820    0.90350    1.000
    H142     H        0.67020    0.18350    0.93360    1.000
    C383     C        0.67180    0.21900    0.88200    1.000
    C384     C        0.69370    0.20270    0.81350    1.000
    C385     C        0.69700    0.17130    0.83470    1.000
    H143     H        0.70450    0.15470    0.81870    1.000
    Zn54     Zn       0.83530    0.20760    0.20670    1.000
    Zn55     Zn       0.80840    0.11050    0.22140    1.000
    O169     O        0.71460    0.29040    0.80440    1.000
    O170     O        0.63630    0.24200    0.81140    1.000
    O171     O        0.70180    0.92830    0.77930    1.000
    O172     O        0.63250    0.88540    0.81500    1.000
    O173     O        0.78780    0.10760    0.15980    1.000
    O174     O        0.79940    0.17960    0.15440    1.000
    O175     O        0.84290    0.09070    0.24400    1.000
    O176     O        0.78680    0.21290    0.20910    1.000
    Zn56     Zn       0.36675    0.22507    0.23877    1.000
    Zn57     Zn       0.29765    0.13965    0.19821    1.000
    Zn58     Zn       0.62298    0.34199    0.71812    1.000
    O177     O        0.26160    0.35670    0.77310    1.000
    O178     O        0.20940    0.30290    0.81960    1.000
    O179     O        0.32170    0.17610    0.14530    1.000
    O180     O        0.37140    0.24290    0.17570    1.000
    O181     O        0.42320    0.24322    0.25440    1.000
    O182     O        0.24150    0.11400    0.21050    1.000
    F111     F        0.31150    0.32010    0.76240    1.000
    F112     F        0.25900    0.33460    0.89860    1.000
    F113     F        0.29280    0.20850    0.08210    1.000
    F114     F        0.43260    0.26330    0.11340    1.000
    F115     F        0.54000    0.26520    0.88140    1.000
    F116     F        0.54420    0.37610    0.79630    1.000
    F117     F        0.49010    0.29150    0.19860    1.000
    F118     F        0.17860    0.03400    0.21750    1.000
    C386     C        0.37040    0.30480    0.89920    1.000
    C387     C        0.36130    0.28910    0.94220    1.000
    H144     H        0.33700    0.28450    0.95580    1.000
    C388     C        0.38870    0.28050    0.96470    1.000
    C389     C        0.42510    0.28740    0.94440    1.000
    H145     H        0.44340    0.28160    0.95950    1.000
    C390     C        0.43420    0.30310    0.90140    1.000
    C391     C        0.40690    0.31180    0.87890    1.000
    H146     H        0.41300    0.32230    0.85020    1.000
    C392     C        0.34050    0.31220    0.87400    1.000
    C393     C        0.31310    0.31970    0.89800    1.000
    H147     H        0.31360    0.31960    0.92890    1.000
    C394     C        0.28480    0.32740    0.87600    1.000
    C395     C        0.28400    0.32760    0.82990    1.000
    C396     C        0.31140    0.32000    0.80590    1.000
    C397     C        0.33970    0.31240    0.82790    1.000
    H148     H        0.35810    0.30740    0.81190    1.000
    C398     C        0.38320    0.26860    0.01280    1.000
    C399     C        0.41400    0.27420    0.04270    1.000
    H149     H        0.44180    0.28910    0.03420    1.000
    C400     C        0.40350    0.25780    0.08520    1.000
    C401     C        0.36210    0.23560    0.09780    1.000
    C402     C        0.33120    0.22990    0.06800    1.000
    C403     C        0.34170    0.24630    0.02550    1.000
    H150     H        0.32110    0.24250    0.00550    1.000
    C404     C        0.47570    0.31110    0.87990    1.000
    C405     C        0.49470    0.34140    0.84750    1.000
    H151     H        0.48390    0.35840    0.84020    1.000
    C406     C        0.52990    0.34630    0.82580    1.000
    C407     C        0.54600    0.32080    0.83670    1.000
    C408     C        0.52700    0.29050    0.86920    1.000
    C409     C        0.49190    0.28570    0.89080    1.000
    H152     H        0.47920    0.26550    0.91250    1.000
    C410     C        0.24910    0.32980    0.80760    1.000
    C411     C        0.35470    0.21510    0.14230    1.000
    C412     C        0.58160    0.32300    0.81110    1.000
    C413     C        0.55528    0.30218    0.22350    1.000
    H153     H        0.56970    0.32570    0.20600    1.000
    C414     C        0.51176    0.28026    0.22340    1.000
    C415     C        0.11140    0.02621    0.23290    1.000
    H154     H        0.09690    0.99940    0.22150    1.000
    C416     C        0.15491    0.04795    0.23290    1.000
    O183     O        0.59510    0.34290    0.77310    1.000
    O184     O        0.61490    0.32690    0.83110    1.000
    F119     F        0.57760    0.34060    0.91070    1.000
    F120     F        0.50440    0.29670    0.77130    1.000
    C417     C        0.51230    0.32410    0.90350    1.000
    H155     H        0.51330    0.32980    0.93360    1.000
    C418     C        0.54720    0.32820    0.88200    1.000
    C419     C        0.50900    0.30630    0.81350    1.000
    C420     C        0.47430    0.30300    0.83470    1.000
    H156     H        0.45020    0.29550    0.81870    1.000
    Zn59     Zn       0.37230    0.16470    0.20670    1.000
    Zn60     Zn       0.30210    0.19160    0.22140    1.000
    O185     O        0.57580    0.28540    0.80440    1.000
    O186     O        0.60570    0.36370    0.81140    1.000
    O187     O        0.22650    0.29820    0.77930    1.000
    O188     O        0.25290    0.36750    0.81500    1.000
    O189     O        0.31980    0.21220    0.15980    1.000
    O190     O        0.38020    0.20060    0.15440    1.000
    O191     O        0.24780    0.15710    0.24400    1.000
    O192     O        0.42610    0.21320    0.20910    1.000
    Zn61     Zn       0.33333    0.66667    0.30640    1.000
    Zn62     Zn       0.33333    0.66667    0.19360    1.000
    Zn63     Zn       0.66667    0.33333    0.69360    1.000
    Zn64     Zn       0.66667    0.33333    0.80640    1.000
    O193     O        0.66470    0.83235    0.75000    1.000
    C421     C        0.37770    0.68885    0.75000    1.000
    C422     C        0.42313    0.71157    0.75000    1.000
    C423     C        0.50983    0.75492    0.75000    1.000
    C424     C        0.55640    0.77820    0.75000    1.000
    C425     C        0.95280    0.97640    0.75000    1.000
    C426     C        0.91020    0.95510    0.75000    1.000
    C427     C        0.82349    0.91175    0.75000    1.000
    C428     C        0.77700    0.88850    0.75000    1.000
    O194     O        0.16765    0.83235    0.75000    1.000
    C429     C        0.31115    0.68885    0.75000    1.000
    C430     C        0.28843    0.71157    0.75000    1.000
    C431     C        0.24508    0.75491    0.75000    1.000
    C432     C        0.22180    0.77820    0.75000    1.000
    C433     C        0.02360    0.97640    0.75000    1.000
    C434     C        0.04490    0.95510    0.75000    1.000
    C435     C        0.08825    0.91175    0.75000    1.000
    C436     C        0.11150    0.88850    0.75000    1.000
    O195     O        0.16765    0.33530    0.75000    1.000
    C437     C        0.31115    0.62230    0.75000    1.000
    C438     C        0.28844    0.57687    0.75000    1.000
    C439     C        0.24509    0.49017    0.75000    1.000
    C440     C        0.22180    0.44360    0.75000    1.000
    C441     C        0.02360    0.04720    0.75000    1.000
    C442     C        0.04490    0.08980    0.75000    1.000
    C443     C        0.08825    0.17651    0.75000    1.000
    C444     C        0.11150    0.22300    0.75000    1.000
    O196     O        0.33530    0.16765    0.25000    1.000
    C445     C        0.62230    0.31115    0.25000    1.000
    C446     C        0.57687    0.28843    0.25000    1.000
    C447     C        0.49017    0.24508    0.25000    1.000
    C448     C        0.44360    0.22180    0.25000    1.000
    C449     C        0.04720    0.02360    0.25000    1.000
    C450     C        0.08980    0.04490    0.25000    1.000
    C451     C        0.17651    0.08825    0.25000    1.000
    C452     C        0.22300    0.11150    0.25000    1.000
    O197     O        0.83235    0.16765    0.25000    1.000
    C453     C        0.68885    0.31115    0.25000    1.000
    C454     C        0.71157    0.28843    0.25000    1.000
    C455     C        0.75492    0.24509    0.25000    1.000
    C456     C        0.77820    0.22180    0.25000    1.000
    C457     C        0.97640    0.02360    0.25000    1.000
    C458     C        0.95510    0.04490    0.25000    1.000
    C459     C        0.91175    0.08825    0.25000    1.000
    C460     C        0.88850    0.11150    0.25000    1.000
    O198     O        0.83235    0.66470    0.25000    1.000
    C461     C        0.68885    0.37770    0.25000    1.000
    C462     C        0.71157    0.42313    0.25000    1.000
    C463     C        0.75492    0.50983    0.25000    1.000
    C464     C        0.77820    0.55640    0.25000    1.000
    C465     C        0.97640    0.95280    0.25000    1.000
    C466     C        0.95510    0.91020    0.25000    1.000
    C467     C        0.91175    0.82349    0.25000    1.000
    C468     C        0.88850    0.77700    0.25000    1.000
    O199     O        0.33333    0.66667    0.25000    1.000
    O200     O        0.66667    0.33333    0.75000    1.000
    C469     C        0.35460    0.70920    0.75000    1.000
    H157     H        0.36900    0.73800    0.75000    1.000
    C470     C        0.29080    0.64540    0.75000    1.000
    H158     H        0.26200    0.63100    0.75000    1.000
    C471     C        0.35460    0.64540    0.75000    1.000
    H159     H        0.36900    0.63100    0.75000    1.000
    C472     C        0.64540    0.29080    0.25000    1.000
    H160     H        0.63100    0.26200    0.25000    1.000
    C473     C        0.70920    0.35460    0.25000    1.000
    H161     H        0.73800    0.36900    0.25000    1.000
    C474     C        0.64540    0.35460    0.25000    1.000
    H162     H        0.63100    0.36900    0.25000    1.000
    C475     C        0.98080    0.96160    0.75000    1.000
    H163     H        0.96635    0.93270    0.75000    1.000
    C476     C        0.03840    0.01920    0.75000    1.000
    H164     H        0.06730    0.03365    0.75000    1.000
    C477     C        0.98080    0.01920    0.75000    1.000
    H165     H        0.96635    0.03365    0.75000    1.000
    C478     C        0.01920    0.03840    0.25000    1.000
    H166     H        0.03365    0.06730    0.25000    1.000
    C479     C        0.96160    0.98080    0.25000    1.000
    H167     H        0.93270    0.96635    0.25000    1.000
    C480     C        0.01920    0.98080    0.25000    1.000
    H168     H        0.03365    0.96635    0.25000    1.000
