# CIF file generated by openbabel 3.1.0, see https://openbabel.org
data_I
_chemical_name_common 'IJASES01_clean'
_cell_length_a 8.6514
_cell_length_b 10.1531
_cell_length_c 11.1703
_cell_angle_alpha 65.437
_cell_angle_beta 71.666
_cell_angle_gamma 78.421
_space_group_name_H-M_alt 'P 1'
_space_group_name_Hall 'P 1'
loop_
    _symmetry_equiv_pos_as_xyz
    x,y,z
loop_
    _atom_site_label
    _atom_site_type_symbol
    _atom_site_fract_x
    _atom_site_fract_y
    _atom_site_fract_z
    _atom_site_occupancy
    Tm1      Tm       0.13211    0.44027    0.65278    1.000
    Tm2      Tm       0.86789    0.55973    0.34722    1.000
    H1       H        0.63360    0.11180    0.77310    1.000
    H2       H        0.23030    0.07020    0.08110    1.000
    H3       H        0.54390    0.35450    0.87690    1.000
    H4       H        0.71320    0.61830    0.98470    1.000
    H5       H        0.92590    0.78210    0.68010    1.000
    H6       H        0.02070    0.02710    0.27950    1.000
    H7       H        0.36640    0.88820    0.22690    1.000
    H8       H        0.76970    0.92980    0.91890    1.000
    H9       H        0.45610    0.64550    0.12310    1.000
    H10      H        0.28680    0.38170    0.01530    1.000
    H11      H        0.07410    0.21790    0.31990    1.000
    H12      H        0.97930    0.97290    0.72050    1.000
    C1       C        0.32580    0.23140    0.82090    1.000
    C2       C        0.41810    0.11180    0.91100    1.000
    C3       C        0.57930    0.06740    0.86440    1.000
    C4       C        0.33930    0.04220    0.04810    1.000
    C5       C        0.82020    0.46150    0.83090    1.000
    C6       C        0.65420    0.48290    0.91740    1.000
    C7       C        0.52610    0.41290    0.92660    1.000
    C8       C        0.62790    0.57080    0.99090    1.000
    C9       C        0.92990    0.76610    0.44760    1.000
    C10      C        0.96610    0.88600    0.47640    1.000
    C11      C        0.95510    0.86920    0.60800    1.000
    C12      C        0.01200    0.01650    0.36810    1.000
    C13      C        0.67420    0.76860    0.17910    1.000
    C14      C        0.58190    0.88820    0.08900    1.000
    C15      C        0.42070    0.93260    0.13560    1.000
    C16      C        0.66070    0.95780    0.95190    1.000
    C17      C        0.17980    0.53850    0.16910    1.000
    C18      C        0.34580    0.51710    0.08260    1.000
    C19      C        0.47390    0.58710    0.07340    1.000
    C20      C        0.37210    0.42920    0.00910    1.000
    C21      C        0.07010    0.23390    0.55240    1.000
    C22      C        0.03390    0.11400    0.52360    1.000
    C23      C        0.04490    0.13080    0.39200    1.000
    C24      C        0.98800    0.98350    0.63190    1.000
    O1       O        0.39780    0.29890    0.69610    1.000
    O2       O        0.17870    0.26560    0.86850    1.000
    O3       O        0.84330    0.38130    0.76370    1.000
    O4       O        0.93550    0.52360    0.82510    1.000
    O5       O        0.96230    0.63430    0.51890    1.000
    O6       O        0.86800    0.79940    0.35000    1.000
    O7       O        0.60220    0.70110    0.30390    1.000
    O8       O        0.82130    0.73440    0.13150    1.000
    O9       O        0.15670    0.61870    0.23630    1.000
    O10      O        0.06450    0.47640    0.17490    1.000
    O11      O        0.03770    0.36570    0.48110    1.000
    O12      O        0.13200    0.20060    0.65000    1.000
