# CIF file generated by openbabel 3.1.0, see https://openbabel.org
data_I
_chemical_name_common 'GAZZIS01_charged'
_cell_length_a 17.3175
_cell_length_b 17.3175
_cell_length_c 26.33
_cell_angle_alpha 94.4883
_cell_angle_beta 94.4883
_cell_angle_gamma 110.217
_space_group_name_H-M_alt 'P 1'
_space_group_name_Hall 'P 1'
loop_
    _symmetry_equiv_pos_as_xyz
    x,y,z
loop_
    _atom_site_label
    _atom_site_type_symbol
    _atom_site_fract_x
    _atom_site_fract_y
    _atom_site_fract_z
    _atom_site_occupancy
    In1      In       0.36736    0.86130    0.88417    1.000
    In2      In       0.86130    0.36736    0.38417    1.000
    H1       H        0.21290    0.76670    0.02340    1.000
    H2       H        0.09720    0.68600    0.05940    1.000
    H3       H        0.96640    0.63040    0.92020    1.000
    H4       H        0.07970    0.71190    0.88500    1.000
    H5       H        0.81060    0.34460    0.20850    1.000
    H6       H        0.80100    0.37820    0.12580    1.000
    H7       H        0.99310    0.59290    0.16640    1.000
    H8       H        0.99970    0.56170    0.24980    1.000
    H9       H        0.38300    0.14160    0.87060    1.000
    H10      H        0.45440    0.28480    0.88490    1.000
    H11      H        0.60290    0.25070    0.00060    1.000
    H12      H        0.53400    0.10800    0.98530    1.000
    H13      H        0.57600    0.77120    0.95420    1.000
    H14      H        0.63610    0.67550    0.97490    1.000
    H15      H        0.45170    0.49270    0.88530    1.000
    H16      H        0.38900    0.58540    0.86530    1.000
    H17      H        0.76300    0.45060    0.06990    1.000
    H18      H        0.85890    0.58850    0.95680    1.000
    H19      H        0.00900    0.58000    0.08110    1.000
    H20      H        0.71010    0.59950    0.96850    1.000
    H21      H        0.69140    0.36460    0.98560    1.000
    H22      H        0.49400    0.41080    0.92220    1.000
    H23      H        0.76670    0.21290    0.52340    1.000
    H24      H        0.68600    0.09720    0.55940    1.000
    H25      H        0.63040    0.96640    0.42020    1.000
    H26      H        0.71190    0.07970    0.38500    1.000
    H27      H        0.34460    0.81060    0.70850    1.000
    H28      H        0.37820    0.80100    0.62580    1.000
    H29      H        0.59290    0.99310    0.66640    1.000
    H30      H        0.56170    0.99970    0.74980    1.000
    H31      H        0.14160    0.38300    0.37060    1.000
    H32      H        0.28480    0.45440    0.38490    1.000
    H33      H        0.25070    0.60290    0.50060    1.000
    H34      H        0.10800    0.53400    0.48530    1.000
    H35      H        0.77120    0.57600    0.45420    1.000
    H36      H        0.67550    0.63610    0.47490    1.000
    H37      H        0.49270    0.45170    0.38530    1.000
    H38      H        0.58540    0.38900    0.36530    1.000
    H39      H        0.45060    0.76300    0.56990    1.000
    H40      H        0.58850    0.85890    0.45680    1.000
    H41      H        0.58000    0.00900    0.58110    1.000
    H42      H        0.59950    0.71010    0.46850    1.000
    H43      H        0.36460    0.69140    0.48560    1.000
    H44      H        0.41080    0.49400    0.42220    1.000
    C1       C        0.15881    0.74677    0.95059    1.000
    C2       C        0.16244    0.73868    0.00203    1.000
    C3       C        0.09358    0.69024    0.02365    1.000
    C4       C        0.01899    0.64777    0.99272    1.000
    C5       C        0.01672    0.65786    0.94181    1.000
    C6       C        0.08424    0.70620    0.92057    1.000
    C7       C        0.90420    0.45138    0.23854    1.000
    C8       C        0.84663    0.39619    0.20029    1.000
    C9       C        0.84169    0.41579    0.15104    1.000
    C10      C        0.89540    0.48988    0.13734    1.000
    C11      C        0.95469    0.54283    0.17510    1.000
    C12      C        0.95886    0.52424    0.22466    1.000
    C13      C        0.45409    0.11105    0.92554    1.000
    C14      C        0.42885    0.16377    0.89632    1.000
    C15      C        0.47112    0.24902    0.90501    1.000
    C16      C        0.53797    0.28213    0.94312    1.000
    C17      C        0.55934    0.22868    0.97340    1.000
    C18      C        0.51810    0.14370    0.96453    1.000
    C19      C        0.47850    0.68882    0.90564    1.000
    C20      C        0.55524    0.57504    0.92936    1.000
    C21      C        0.55170    0.71510    0.93950    1.000
    C22      C        0.58750    0.65790    0.95110    1.000
    C23      C        0.47790    0.54930    0.89820    1.000
    C24      C        0.44040    0.60400    0.88640    1.000
    C25      C        0.88725    0.51359    0.08439    1.000
    C26      C        0.80926    0.48744    0.05632    1.000
    C27      C        0.79773    0.51441    0.00842    1.000
    C28      C        0.86635    0.56839    0.98865    1.000
    C29      C        0.94572    0.59304    0.01531    1.000
    C30      C        0.95532    0.56444    0.06304    1.000
    C31      C        0.59499    0.51541    0.94335    1.000
    C32      C        0.67765    0.54215    0.96496    1.000
    C33      C        0.71298    0.48638    0.98121    1.000
    C34      C        0.66712    0.40264    0.97437    1.000
    C35      C        0.58622    0.37342    0.95144    1.000
    C36      C        0.55011    0.43039    0.93682    1.000
    C37      C        0.23352    0.79486    0.92755    1.000
    C38      C        0.90575    0.43465    0.29369    1.000
    C39      C        0.41349    0.01905    0.91376    1.000
    C40      C        0.43666    0.74830    0.89509    1.000
    C41      C        0.74677    0.15881    0.45059    1.000
    C42      C        0.73868    0.16244    0.50203    1.000
    C43      C        0.69024    0.09358    0.52365    1.000
    C44      C        0.64777    0.01899    0.49272    1.000
    C45      C        0.65786    0.01672    0.44181    1.000
    C46      C        0.70620    0.08424    0.42057    1.000
    C47      C        0.45138    0.90420    0.73854    1.000
    C48      C        0.39619    0.84663    0.70029    1.000
    C49      C        0.41579    0.84169    0.65104    1.000
    C50      C        0.48988    0.89540    0.63734    1.000
    C51      C        0.54283    0.95469    0.67510    1.000
    C52      C        0.52424    0.95886    0.72466    1.000
    C53      C        0.11105    0.45409    0.42554    1.000
    C54      C        0.16377    0.42885    0.39632    1.000
    C55      C        0.24902    0.47112    0.40501    1.000
    C56      C        0.28213    0.53797    0.44312    1.000
    C57      C        0.22868    0.55934    0.47340    1.000
    C58      C        0.14370    0.51810    0.46453    1.000
    C59      C        0.68882    0.47850    0.40564    1.000
    C60      C        0.57504    0.55524    0.42936    1.000
    C61      C        0.71510    0.55170    0.43950    1.000
    C62      C        0.65790    0.58750    0.45110    1.000
    C63      C        0.54930    0.47790    0.39820    1.000
    C64      C        0.60400    0.44040    0.38640    1.000
    C65      C        0.51359    0.88725    0.58439    1.000
    C66      C        0.48744    0.80926    0.55632    1.000
    C67      C        0.51441    0.79773    0.50842    1.000
    C68      C        0.56839    0.86635    0.48865    1.000
    C69      C        0.59304    0.94572    0.51531    1.000
    C70      C        0.56444    0.95532    0.56304    1.000
    C71      C        0.51541    0.59499    0.44335    1.000
    C72      C        0.54215    0.67765    0.46496    1.000
    C73      C        0.48638    0.71298    0.48121    1.000
    C74      C        0.40264    0.66712    0.47437    1.000
    C75      C        0.37342    0.58622    0.45144    1.000
    C76      C        0.43039    0.55011    0.43682    1.000
    C77      C        0.79486    0.23352    0.42755    1.000
    C78      C        0.43465    0.90575    0.79369    1.000
    C79      C        0.01905    0.41349    0.41376    1.000
    C80      C        0.74830    0.43666    0.39509    1.000
    O1       O        0.22999    0.80171    0.87961    1.000
    O2       O        0.30305    0.82693    0.95531    1.000
    O3       O        0.85127    0.36689    0.30375    1.000
    O4       O        0.95724    0.48510    0.32666    1.000
    O5       O        0.34843    0.98695    0.88308    1.000
    O6       O        0.44950    0.97396    0.93336    1.000
    O7       O        0.47788    0.82536    0.90154    1.000
    O8       O        0.36081    0.72383    0.88097    1.000
    O9       O        0.80171    0.22999    0.37961    1.000
    O10      O        0.82693    0.30305    0.45531    1.000
    O11      O        0.36689    0.85127    0.80375    1.000
    O12      O        0.48510    0.95724    0.82666    1.000
    O13      O        0.98695    0.34843    0.38308    1.000
    O14      O        0.97396    0.44950    0.43336    1.000
    O15      O        0.82536    0.47788    0.40154    1.000
    O16      O        0.72383    0.36081    0.38097    1.000
    In3      In       0.13870    0.63264    0.61583    1.000
    In4      In       0.63264    0.13870    0.11583    1.000
    H45      H        0.23330    0.78710    0.47660    1.000
    H46      H        0.31400    0.90280    0.44060    1.000
    H47      H        0.36960    0.03360    0.57980    1.000
    H48      H        0.28810    0.92030    0.61500    1.000
    H49      H        0.65540    0.18940    0.29150    1.000
    H50      H        0.62180    0.19900    0.37420    1.000
    H51      H        0.40710    0.00690    0.33360    1.000
    H52      H        0.43830    0.00030    0.25020    1.000
    H53      H        0.85840    0.61700    0.62940    1.000
    H54      H        0.71520    0.54560    0.61510    1.000
    H55      H        0.74930    0.39710    0.49940    1.000
    H56      H        0.89200    0.46600    0.51470    1.000
    H57      H        0.22880    0.42400    0.54580    1.000
    H58      H        0.32450    0.36390    0.52510    1.000
    H59      H        0.50730    0.54830    0.61470    1.000
    H60      H        0.41460    0.61100    0.63470    1.000
    H61      H        0.54940    0.23700    0.43010    1.000
    H62      H        0.41150    0.14110    0.54320    1.000
    H63      H        0.42000    0.99100    0.41890    1.000
    H64      H        0.40050    0.28990    0.53150    1.000
    H65      H        0.63540    0.30860    0.51440    1.000
    H66      H        0.58920    0.50600    0.57780    1.000
    H67      H        0.78710    0.23330    0.97660    1.000
    H68      H        0.90280    0.31400    0.94060    1.000
    H69      H        0.03360    0.36960    0.07980    1.000
    H70      H        0.92030    0.28810    0.11500    1.000
    H71      H        0.18940    0.65540    0.79150    1.000
    H72      H        0.19900    0.62180    0.87420    1.000
    H73      H        0.00690    0.40710    0.83360    1.000
    H74      H        0.00030    0.43830    0.75020    1.000
    H75      H        0.61700    0.85840    0.12940    1.000
    H76      H        0.54560    0.71520    0.11510    1.000
    H77      H        0.39710    0.74930    0.99940    1.000
    H78      H        0.46600    0.89200    0.01470    1.000
    H79      H        0.42400    0.22880    0.04580    1.000
    H80      H        0.36390    0.32450    0.02510    1.000
    H81      H        0.54830    0.50730    0.11470    1.000
    H82      H        0.61100    0.41460    0.13470    1.000
    H83      H        0.23700    0.54940    0.93010    1.000
    H84      H        0.14110    0.41150    0.04320    1.000
    H85      H        0.99100    0.42000    0.91890    1.000
    H86      H        0.28990    0.40050    0.03150    1.000
    H87      H        0.30860    0.63540    0.01440    1.000
    H88      H        0.50600    0.58920    0.07780    1.000
    C81      C        0.25323    0.84119    0.54941    1.000
    C82      C        0.26132    0.83756    0.49797    1.000
    C83      C        0.30976    0.90642    0.47635    1.000
    C84      C        0.35223    0.98101    0.50728    1.000
    C85      C        0.34214    0.98328    0.55819    1.000
    C86      C        0.29380    0.91576    0.57943    1.000
    C87      C        0.54862    0.09580    0.26146    1.000
    C88      C        0.60381    0.15337    0.29971    1.000
    C89      C        0.58421    0.15831    0.34896    1.000
    C90      C        0.51012    0.10460    0.36266    1.000
    C91      C        0.45717    0.04531    0.32490    1.000
    C92      C        0.47576    0.04114    0.27534    1.000
    C93      C        0.88895    0.54591    0.57446    1.000
    C94      C        0.83623    0.57115    0.60368    1.000
    C95      C        0.75098    0.52888    0.59499    1.000
    C96      C        0.71787    0.46203    0.55688    1.000
    C97      C        0.77132    0.44066    0.52660    1.000
    C98      C        0.85630    0.48190    0.53547    1.000
    C99      C        0.31118    0.52150    0.59436    1.000
    C100     C        0.42496    0.44476    0.57064    1.000
    C101     C        0.28490    0.44830    0.56050    1.000
    C102     C        0.34210    0.41250    0.54890    1.000
    C103     C        0.45070    0.52210    0.60180    1.000
    C104     C        0.39600    0.55960    0.61360    1.000
    C105     C        0.48641    0.11275    0.41561    1.000
    C106     C        0.51256    0.19074    0.44368    1.000
    C107     C        0.48559    0.20227    0.49158    1.000
    C108     C        0.43161    0.13365    0.51135    1.000
    C109     C        0.40696    0.05428    0.48469    1.000
    C110     C        0.43556    0.04468    0.43696    1.000
    C111     C        0.48459    0.40501    0.55665    1.000
    C112     C        0.45785    0.32235    0.53504    1.000
    C113     C        0.51362    0.28702    0.51879    1.000
    C114     C        0.59736    0.33288    0.52563    1.000
    C115     C        0.62658    0.41378    0.54856    1.000
    C116     C        0.56961    0.44989    0.56318    1.000
    C117     C        0.20514    0.76648    0.57245    1.000
    C118     C        0.56535    0.09425    0.20631    1.000
    C119     C        0.98095    0.58651    0.58624    1.000
    C120     C        0.25170    0.56334    0.60491    1.000
    C121     C        0.84119    0.25323    0.04941    1.000
    C122     C        0.83756    0.26132    0.99797    1.000
    C123     C        0.90642    0.30976    0.97635    1.000
    C124     C        0.98101    0.35223    0.00728    1.000
    C125     C        0.98328    0.34214    0.05819    1.000
    C126     C        0.91576    0.29380    0.07943    1.000
    C127     C        0.09580    0.54862    0.76146    1.000
    C128     C        0.15337    0.60381    0.79971    1.000
    C129     C        0.15831    0.58421    0.84896    1.000
    C130     C        0.10460    0.51012    0.86266    1.000
    C131     C        0.04531    0.45717    0.82490    1.000
    C132     C        0.04114    0.47576    0.77534    1.000
    C133     C        0.54591    0.88895    0.07446    1.000
    C134     C        0.57115    0.83623    0.10368    1.000
    C135     C        0.52888    0.75098    0.09499    1.000
    C136     C        0.46203    0.71787    0.05688    1.000
    C137     C        0.44066    0.77132    0.02660    1.000
    C138     C        0.48190    0.85630    0.03547    1.000
    C139     C        0.52150    0.31118    0.09436    1.000
    C140     C        0.44476    0.42496    0.07064    1.000
    C141     C        0.44830    0.28490    0.06050    1.000
    C142     C        0.41250    0.34210    0.04890    1.000
    C143     C        0.52210    0.45070    0.10180    1.000
    C144     C        0.55960    0.39600    0.11360    1.000
    C145     C        0.11275    0.48641    0.91561    1.000
    C146     C        0.19074    0.51256    0.94368    1.000
    C147     C        0.20227    0.48559    0.99158    1.000
    C148     C        0.13365    0.43161    0.01135    1.000
    C149     C        0.05428    0.40696    0.98469    1.000
    C150     C        0.04468    0.43556    0.93696    1.000
    C151     C        0.40501    0.48459    0.05665    1.000
    C152     C        0.32235    0.45785    0.03504    1.000
    C153     C        0.28702    0.51362    0.01879    1.000
    C154     C        0.33288    0.59736    0.02563    1.000
    C155     C        0.41378    0.62658    0.04856    1.000
    C156     C        0.44989    0.56961    0.06318    1.000
    C157     C        0.76648    0.20514    0.07245    1.000
    C158     C        0.09425    0.56535    0.70631    1.000
    C159     C        0.58651    0.98095    0.08624    1.000
    C160     C        0.56334    0.25170    0.10491    1.000
    O17      O        0.19829    0.77001    0.62039    1.000
    O18      O        0.17307    0.69695    0.54469    1.000
    O19      O        0.63311    0.14873    0.19625    1.000
    O20      O        0.51490    0.04276    0.17334    1.000
    O21      O        0.01305    0.65157    0.61692    1.000
    O22      O        0.02604    0.55050    0.56664    1.000
    O23      O        0.17464    0.52212    0.59846    1.000
    O24      O        0.27617    0.63919    0.61903    1.000
    O25      O        0.77001    0.19829    0.12039    1.000
    O26      O        0.69695    0.17307    0.04469    1.000
    O27      O        0.14873    0.63311    0.69625    1.000
    O28      O        0.04276    0.51490    0.67334    1.000
    O29      O        0.65157    0.01305    0.11692    1.000
    O30      O        0.55050    0.02604    0.06664    1.000
    O31      O        0.52212    0.17464    0.09846    1.000
    O32      O        0.63919    0.27617    0.11903    1.000
    H89      H        0.63160    0.95380    0.88360    1.000
    H90      H        0.56200    0.97480    0.90320    1.000
    H91      H        0.62510    0.92730    0.96780    1.000
    H92      H        0.71050    0.99950    0.96210    1.000
    H93      H        0.63580    0.02200    0.98330    1.000
    H94      H        0.63690    0.08330    0.85850    1.000
    H95      H        0.64530    0.11690    0.91780    1.000
    H96      H        0.71870    0.09370    0.89530    1.000
    C161     C        0.65025    0.98415    0.95936    1.000
    C162     C        0.65850    0.07890    0.89330    1.000
    N1       N        0.61870    0.98956    0.90616    1.000
    H97      H        0.04620    0.36840    0.61640    1.000
    H98      H        0.02520    0.43800    0.59680    1.000
    H99      H        0.07270    0.37490    0.53220    1.000
    H100     H        0.00050    0.28950    0.53790    1.000
    H101     H        0.97800    0.36420    0.51670    1.000
    H102     H        0.91670    0.36310    0.64150    1.000
    H103     H        0.88310    0.35470    0.58220    1.000
    H104     H        0.90630    0.28130    0.60470    1.000
    C163     C        0.01585    0.34975    0.54064    1.000
    C164     C        0.92110    0.34150    0.60670    1.000
    N2       N        0.01044    0.38130    0.59384    1.000
    H105     H        0.36840    0.04620    0.11640    1.000
    H106     H        0.43800    0.02520    0.09680    1.000
    H107     H        0.37490    0.07270    0.03220    1.000
    H108     H        0.28950    0.00050    0.03790    1.000
    H109     H        0.36420    0.97800    0.01670    1.000
    H110     H        0.36310    0.91670    0.14150    1.000
    H111     H        0.35470    0.88310    0.08220    1.000
    H112     H        0.28130    0.90630    0.10470    1.000
    C165     C        0.34975    0.01585    0.04064    1.000
    C166     C        0.34150    0.92110    0.10670    1.000
    N3       N        0.38130    0.01044    0.09384    1.000
    H113     H        0.95380    0.63160    0.38360    1.000
    H114     H        0.97480    0.56200    0.40320    1.000
    H115     H        0.92730    0.62510    0.46780    1.000
    H116     H        0.99950    0.71050    0.46210    1.000
    H117     H        0.02200    0.63580    0.48330    1.000
    H118     H        0.08330    0.63690    0.35850    1.000
    H119     H        0.11690    0.64530    0.41780    1.000
    H120     H        0.09370    0.71870    0.39530    1.000
    C167     C        0.98415    0.65025    0.45936    1.000
    C168     C        0.07890    0.65850    0.39330    1.000
    N4       N        0.98956    0.61870    0.40616    1.000
