# CIF file generated by openbabel 3.1.0, see https://openbabel.org
data_I
_chemical_name_common 'SEHSOO_clean'
_cell_length_a 10.844
_cell_length_b 10.961
_cell_length_c 15.585
_cell_angle_alpha 90
_cell_angle_beta 90
_cell_angle_gamma 100.557
_space_group_name_H-M_alt 'P 1'
_space_group_name_Hall 'P 1'
loop_
    _symmetry_equiv_pos_as_xyz
    x,y,z
loop_
    _atom_site_label
    _atom_site_type_symbol
    _atom_site_fract_x
    _atom_site_fract_y
    _atom_site_fract_z
    _atom_site_occupancy
    Ho1      Ho       0.85707    0.10300    0.89797    1.000
    Ho2      Ho       0.64293    0.39700    0.39797    1.000
    Ho3      Ho       0.14293    0.89700    0.10203    1.000
    Ho4      Ho       0.35707    0.60300    0.60203    1.000
    H1       H        0.39880    0.08820    0.95330    1.000
    H2       H        0.55240    0.32000    0.76610    1.000
    H3       H        0.18420    0.27770    0.81460    1.000
    H4       H        0.10120    0.41180    0.45330    1.000
    H5       H        0.94760    0.18000    0.26610    1.000
    H6       H        0.31580    0.22230    0.31460    1.000
    H7       H        0.60120    0.91180    0.04670    1.000
    H8       H        0.44760    0.68000    0.23390    1.000
    H9       H        0.81580    0.72230    0.18540    1.000
    H10      H        0.89880    0.58820    0.54670    1.000
    H11      H        0.05240    0.82000    0.73390    1.000
    H12      H        0.68420    0.77770    0.68540    1.000
    C1       C        0.16070    0.11640    0.94350    1.000
    C2       C        0.62230    0.16550    0.87820    1.000
    C3       C        0.35710    0.40420    0.70940    1.000
    C4       C        0.27390    0.17520    0.89240    1.000
    C5       C        0.39070    0.14450    0.91000    1.000
    C6       C        0.49530    0.19910    0.86210    1.000
    C7       C        0.48250    0.28330    0.79750    1.000
    C8       C        0.36620    0.31310    0.77950    1.000
    C9       C        0.26240    0.25840    0.82690    1.000
    C10      C        0.33930    0.38360    0.44350    1.000
    C11      C        0.87770    0.33450    0.37820    1.000
    C12      C        0.14290    0.09580    0.20940    1.000
    C13      C        0.22610    0.32480    0.39240    1.000
    C14      C        0.10930    0.35550    0.41000    1.000
    C15      C        0.00470    0.30090    0.36210    1.000
    C16      C        0.01750    0.21670    0.29750    1.000
    C17      C        0.13380    0.18690    0.27950    1.000
    C18      C        0.23760    0.24160    0.32690    1.000
    C19      C        0.83930    0.88360    0.05650    1.000
    C20      C        0.37770    0.83450    0.12180    1.000
    C21      C        0.64290    0.59580    0.29060    1.000
    C22      C        0.72610    0.82480    0.10760    1.000
    C23      C        0.60930    0.85550    0.09000    1.000
    C24      C        0.50470    0.80090    0.13790    1.000
    C25      C        0.51750    0.71670    0.20250    1.000
    C26      C        0.63380    0.68690    0.22050    1.000
    C27      C        0.73760    0.74160    0.17310    1.000
    C28      C        0.66070    0.61640    0.55650    1.000
    C29      C        0.12230    0.66550    0.62180    1.000
    C30      C        0.85710    0.90420    0.79060    1.000
    C31      C        0.77390    0.67520    0.60760    1.000
    C32      C        0.89070    0.64450    0.59000    1.000
    C33      C        0.99530    0.69910    0.63790    1.000
    C34      C        0.98250    0.78330    0.70250    1.000
    C35      C        0.86620    0.81310    0.72050    1.000
    C36      C        0.76240    0.75840    0.67310    1.000
    O1       O        0.06350    0.16320    0.93790    1.000
    O2       O        0.17070    0.02540    0.98940    1.000
    O3       O        0.63630    0.09060    0.93560    1.000
    O4       O        0.71150    0.21240    0.82980    1.000
    O5       O        0.45110    0.44050    0.66320    1.000
    O6       O        0.25680    0.44640    0.69940    1.000
    O7       O        0.43650    0.33680    0.43790    1.000
    O8       O        0.32930    0.47460    0.48940    1.000
    O9       O        0.86370    0.40940    0.43560    1.000
    O10      O        0.78850    0.28760    0.32980    1.000
    O11      O        0.04890    0.05950    0.16320    1.000
    O12      O        0.24320    0.05360    0.19940    1.000
    O13      O        0.93650    0.83680    0.06210    1.000
    O14      O        0.82930    0.97460    0.01060    1.000
    O15      O        0.36370    0.90940    0.06440    1.000
    O16      O        0.28850    0.78760    0.17020    1.000
    O17      O        0.54890    0.55950    0.33680    1.000
    O18      O        0.74320    0.55360    0.30060    1.000
    O19      O        0.56350    0.66320    0.56210    1.000
    O20      O        0.67070    0.52540    0.51060    1.000
    O21      O        0.13630    0.59060    0.56440    1.000
    O22      O        0.21150    0.71240    0.67020    1.000
    O23      O        0.95110    0.94050    0.83680    1.000
    O24      O        0.75680    0.94640    0.80060    1.000
