# CIF file generated by openbabel 3.1.0, see https://openbabel.org
data_I
_chemical_name_common 'image0'
_cell_length_a 15.4035
_cell_length_b 16.2311
_cell_length_c 26.268
_cell_angle_alpha 90
_cell_angle_beta 95.187
_cell_angle_gamma 90
_space_group_name_H-M_alt 'P 1'
_space_group_name_Hall 'P 1'
loop_
    _symmetry_equiv_pos_as_xyz
    x,y,z
loop_
    _atom_site_label
    _atom_site_type_symbol
    _atom_site_fract_x
    _atom_site_fract_y
    _atom_site_fract_z
    _atom_site_occupancy
    Mn1      Mn       0.83428    0.23169    0.65592    1.000
    O1       O        0.64050    0.33170    0.59980    1.000
    Mn2      Mn       0.67876    0.24091    0.54724    1.000
    O2       O        0.79050    0.31910    0.52949    1.000
    Mn3      Mn       0.75278    0.04704    0.61445    1.000
    O3       O        0.07450    0.66290    0.55790    1.000
    O4       O        0.11240    0.54760    0.60090    1.000
    O5       O        0.77440    0.16580    0.58846    1.000
    O6       O        0.72700    0.30910    0.67010    1.000
    O7       O        0.87540    0.32800    0.60320    1.000
    O8       O        0.73930    0.56510    0.42300    1.000
    C1       C        0.84450    0.35580    0.56120    1.000
    C2       C        0.68730    0.46000    0.71010    1.000
    C3       C        0.64130    0.42860    0.66670    1.000
    C4       C        0.66270    0.53550    0.73030    1.000
    C5       C        0.94880    0.47560    0.56890    1.000
    C6       C        0.97400    0.55250    0.55430    1.000
    O9       O        0.39890    0.53650    0.62540    1.000
    C7       C        0.87220    0.44060    0.54700    1.000
    C8       C        0.56790    0.46840    0.64720    1.000
    O10      O        0.45000    0.65800    0.65300    1.000
    C9       C        0.84490    0.56190    0.49520    1.000
    C10      C        0.67320    0.35020    0.64330    1.000
    C11      C        0.82140    0.48580    0.51040    1.000
    C12      C        0.92080    0.59540    0.51750    1.000
    C13      C        0.06120    0.59010    0.57260    1.000
    C14      C        0.54080    0.54140    0.66650    1.000
    C15      C        0.45780    0.58160    0.64660    1.000
    C16      C        0.70870    0.56820    0.77840    1.000
    C17      C        0.59080    0.57650    0.70800    1.000
    C18      C        0.79310    0.60530    0.45220    1.000
    O11      O        0.74860    0.51560    0.80830    1.000
    O12      O        0.70320    0.64240    0.78920    1.000
    O13      O        0.80260    0.68030    0.44810    1.000
    H1       H        0.55200    0.44900    0.62100    1.000
    H2       H        0.98200    0.44500    0.59200    1.000
    H3       H        0.56900    0.62300    0.71900    1.000
    H4       H        0.94000    0.64100    0.51300    1.000
    H5       H        0.77800    0.47000    0.50000    1.000
    H6       H        0.74000    0.43000    0.70900    1.000
    Mn4      Mn       0.33428    0.73169    0.65592    1.000
    O14      O        0.14050    0.83170    0.59980    1.000
    Mn5      Mn       0.17876    0.74091    0.54724    1.000
    O15      O        0.29050    0.81910    0.52949    1.000
    Mn6      Mn       0.25278    0.54704    0.61445    1.000
    O16      O        0.57450    0.16290    0.55790    1.000
    O17      O        0.61240    0.04760    0.60090    1.000
    O18      O        0.27440    0.66580    0.58846    1.000
    O19      O        0.22700    0.80910    0.67010    1.000
    O20      O        0.37540    0.82800    0.60320    1.000
    O21      O        0.23930    0.06510    0.42300    1.000
    C19      C        0.34450    0.85580    0.56120    1.000
    C20      C        0.18730    0.96000    0.71010    1.000
    C21      C        0.14130    0.92860    0.66670    1.000
    C22      C        0.16270    0.03550    0.73030    1.000
    C23      C        0.44880    0.97560    0.56890    1.000
    C24      C        0.47400    0.05250    0.55430    1.000
    O22      O        0.89890    0.03650    0.62540    1.000
    C25      C        0.37220    0.94060    0.54700    1.000
    C26      C        0.06790    0.96840    0.64720    1.000
    O23      O        0.95000    0.15800    0.65300    1.000
    C27      C        0.34490    0.06190    0.49520    1.000
    C28      C        0.17320    0.85020    0.64330    1.000
    C29      C        0.32140    0.98580    0.51040    1.000
    C30      C        0.42080    0.09540    0.51750    1.000
    C31      C        0.56120    0.09010    0.57260    1.000
    C32      C        0.04080    0.04140    0.66650    1.000
    C33      C        0.95780    0.08160    0.64660    1.000
    C34      C        0.20870    0.06820    0.77840    1.000
    C35      C        0.09080    0.07650    0.70800    1.000
    C36      C        0.29310    0.10530    0.45220    1.000
    O24      O        0.24860    0.01560    0.80830    1.000
    O25      O        0.20320    0.14240    0.78920    1.000
    O26      O        0.30260    0.18030    0.44810    1.000
    H7       H        0.05200    0.94900    0.62100    1.000
    H8       H        0.48200    0.94500    0.59200    1.000
    H9       H        0.06900    0.12300    0.71900    1.000
    H10      H        0.44000    0.14100    0.51300    1.000
    H11      H        0.27800    0.97000    0.50000    1.000
    H12      H        0.24000    0.93000    0.70900    1.000
    Mn7      Mn       0.16572    0.23169    0.84408    1.000
    O27      O        0.35950    0.33170    0.90020    1.000
    Mn8      Mn       0.32124    0.24091    0.95276    1.000
    O28      O        0.20950    0.31910    0.97051    1.000
    Mn9      Mn       0.24722    0.04704    0.88555    1.000
    O29      O        0.92550    0.66290    0.94210    1.000
    O30      O        0.88760    0.54760    0.89910    1.000
    O31      O        0.22560    0.16580    0.91154    1.000
    O32      O        0.27300    0.30910    0.82990    1.000
    O33      O        0.12460    0.32800    0.89680    1.000
    O34      O        0.26070    0.56510    0.07700    1.000
    C37      C        0.15550    0.35580    0.93880    1.000
    C38      C        0.31270    0.46000    0.78990    1.000
    C39      C        0.35870    0.42860    0.83330    1.000
    C40      C        0.33730    0.53550    0.76970    1.000
    C41      C        0.05120    0.47560    0.93110    1.000
    C42      C        0.02600    0.55250    0.94570    1.000
    O35      O        0.60110    0.53650    0.87460    1.000
    C43      C        0.12780    0.44060    0.95300    1.000
    C44      C        0.43210    0.46840    0.85280    1.000
    O36      O        0.55000    0.65800    0.84700    1.000
    C45      C        0.15510    0.56190    0.00480    1.000
    C46      C        0.32680    0.35020    0.85670    1.000
    C47      C        0.17860    0.48580    0.98960    1.000
    C48      C        0.07920    0.59540    0.98250    1.000
    C49      C        0.93880    0.59010    0.92740    1.000
    C50      C        0.45920    0.54140    0.83350    1.000
    C51      C        0.54220    0.58160    0.85340    1.000
    C52      C        0.29130    0.56820    0.72160    1.000
    C53      C        0.40920    0.57650    0.79200    1.000
    C54      C        0.20690    0.60530    0.04780    1.000
    O37      O        0.25140    0.51560    0.69170    1.000
    O38      O        0.29680    0.64240    0.71080    1.000
    O39      O        0.19740    0.68030    0.05190    1.000
    H13      H        0.44800    0.44900    0.87900    1.000
    H14      H        0.01800    0.44500    0.90800    1.000
    H15      H        0.43100    0.62300    0.78100    1.000
    H16      H        0.06000    0.64100    0.98700    1.000
    H17      H        0.22200    0.47000    0.00000    1.000
    H18      H        0.26000    0.43000    0.79100    1.000
    Mn10     Mn       0.66572    0.73169    0.84408    1.000
    O40      O        0.85950    0.83170    0.90020    1.000
    Mn11     Mn       0.82124    0.74091    0.95276    1.000
    O41      O        0.70950    0.81910    0.97051    1.000
    Mn12     Mn       0.74722    0.54704    0.88555    1.000
    O42      O        0.42550    0.16290    0.94210    1.000
    O43      O        0.38760    0.04760    0.89910    1.000
    O44      O        0.72560    0.66580    0.91154    1.000
    O45      O        0.77300    0.80910    0.82990    1.000
    O46      O        0.62460    0.82800    0.89680    1.000
    O47      O        0.76070    0.06510    0.07700    1.000
    C55      C        0.65550    0.85580    0.93880    1.000
    C56      C        0.81270    0.96000    0.78990    1.000
    C57      C        0.85870    0.92860    0.83330    1.000
    C58      C        0.83730    0.03550    0.76970    1.000
    C59      C        0.55120    0.97560    0.93110    1.000
    C60      C        0.52600    0.05250    0.94570    1.000
    O48      O        0.10110    0.03650    0.87460    1.000
    C61      C        0.62780    0.94060    0.95300    1.000
    C62      C        0.93210    0.96840    0.85280    1.000
    O49      O        0.05000    0.15800    0.84700    1.000
    C63      C        0.65510    0.06190    0.00480    1.000
    C64      C        0.82680    0.85020    0.85670    1.000
    C65      C        0.67860    0.98580    0.98960    1.000
    C66      C        0.57920    0.09540    0.98250    1.000
    C67      C        0.43880    0.09010    0.92740    1.000
    C68      C        0.95920    0.04140    0.83350    1.000
    C69      C        0.04220    0.08160    0.85340    1.000
    C70      C        0.79130    0.06820    0.72160    1.000
    C71      C        0.90920    0.07650    0.79200    1.000
    C72      C        0.70690    0.10530    0.04780    1.000
    O50      O        0.75140    0.01560    0.69170    1.000
    O51      O        0.79680    0.14240    0.71080    1.000
    O52      O        0.69740    0.18030    0.05190    1.000
    H19      H        0.94800    0.94900    0.87900    1.000
    H20      H        0.51800    0.94500    0.90800    1.000
    H21      H        0.93100    0.12300    0.78100    1.000
    H22      H        0.56000    0.14100    0.98700    1.000
    H23      H        0.72200    0.97000    0.00000    1.000
    H24      H        0.76000    0.93000    0.79100    1.000
    Mn13     Mn       0.16572    0.76831    0.34408    1.000
    O53      O        0.35950    0.66830    0.40020    1.000
    Mn14     Mn       0.32124    0.75909    0.45276    1.000
    O54      O        0.20950    0.68090    0.47051    1.000
    Mn15     Mn       0.24722    0.95296    0.38555    1.000
    O55      O        0.92550    0.33710    0.44210    1.000
    O56      O        0.88760    0.45240    0.39910    1.000
    O57      O        0.22560    0.83420    0.41154    1.000
    O58      O        0.27300    0.69090    0.32990    1.000
    O59      O        0.12460    0.67200    0.39680    1.000
    O60      O        0.26070    0.43490    0.57700    1.000
    C73      C        0.15550    0.64420    0.43880    1.000
    C74      C        0.31270    0.54000    0.28990    1.000
    C75      C        0.35870    0.57140    0.33330    1.000
    C76      C        0.33730    0.46450    0.26970    1.000
    C77      C        0.05120    0.52440    0.43110    1.000
    C78      C        0.02600    0.44750    0.44570    1.000
    O61      O        0.60110    0.46350    0.37460    1.000
    C79      C        0.12780    0.55940    0.45300    1.000
    C80      C        0.43210    0.53160    0.35280    1.000
    O62      O        0.55000    0.34200    0.34700    1.000
    C81      C        0.15510    0.43810    0.50480    1.000
    C82      C        0.32680    0.64980    0.35670    1.000
    C83      C        0.17860    0.51420    0.48960    1.000
    C84      C        0.07920    0.40460    0.48250    1.000
    C85      C        0.93880    0.40990    0.42740    1.000
    C86      C        0.45920    0.45860    0.33350    1.000
    C87      C        0.54220    0.41840    0.35340    1.000
    C88      C        0.29130    0.43180    0.22160    1.000
    C89      C        0.40920    0.42350    0.29200    1.000
    C90      C        0.20690    0.39470    0.54780    1.000
    O63      O        0.25140    0.48440    0.19170    1.000
    O64      O        0.29680    0.35760    0.21080    1.000
    O65      O        0.19740    0.31970    0.55190    1.000
    H25      H        0.44800    0.55100    0.37900    1.000
    H26      H        0.01800    0.55500    0.40800    1.000
    H27      H        0.43100    0.37700    0.28100    1.000
    H28      H        0.06000    0.35900    0.48700    1.000
    H29      H        0.22200    0.53000    0.50000    1.000
    H30      H        0.26000    0.57000    0.29100    1.000
    Mn16     Mn       0.66572    0.26831    0.34408    1.000
    O66      O        0.85950    0.16830    0.40020    1.000
    Mn17     Mn       0.82124    0.25909    0.45276    1.000
    O67      O        0.70950    0.18090    0.47051    1.000
    Mn18     Mn       0.74722    0.45296    0.38555    1.000
    O68      O        0.42550    0.83710    0.44210    1.000
    O69      O        0.38760    0.95240    0.39910    1.000
    O70      O        0.72560    0.33420    0.41154    1.000
    O71      O        0.77300    0.19090    0.32990    1.000
    O72      O        0.62460    0.17200    0.39680    1.000
    O73      O        0.76070    0.93490    0.57700    1.000
    C91      C        0.65550    0.14420    0.43880    1.000
    C92      C        0.81270    0.04000    0.28990    1.000
    C93      C        0.85870    0.07140    0.33330    1.000
    C94      C        0.83730    0.96450    0.26970    1.000
    C95      C        0.55120    0.02440    0.43110    1.000
    C96      C        0.52600    0.94750    0.44570    1.000
    O74      O        0.10110    0.96350    0.37460    1.000
    C97      C        0.62780    0.05940    0.45300    1.000
    C98      C        0.93210    0.03160    0.35280    1.000
    O75      O        0.05000    0.84200    0.34700    1.000
    C99      C        0.65510    0.93810    0.50480    1.000
    C100     C        0.82680    0.14980    0.35670    1.000
    C101     C        0.67860    0.01420    0.48960    1.000
    C102     C        0.57920    0.90460    0.48250    1.000
    C103     C        0.43880    0.90990    0.42740    1.000
    C104     C        0.95920    0.95860    0.33350    1.000
    C105     C        0.04220    0.91840    0.35340    1.000
    C106     C        0.79130    0.93180    0.22160    1.000
    C107     C        0.90920    0.92350    0.29200    1.000
    C108     C        0.70690    0.89470    0.54780    1.000
    O76      O        0.75140    0.98440    0.19170    1.000
    O77      O        0.79680    0.85760    0.21080    1.000
    O78      O        0.69740    0.81970    0.55190    1.000
    H31      H        0.94800    0.05100    0.37900    1.000
    H32      H        0.51800    0.05500    0.40800    1.000
    H33      H        0.93100    0.87700    0.28100    1.000
    H34      H        0.56000    0.85900    0.48700    1.000
    H35      H        0.72200    0.03000    0.50000    1.000
    H36      H        0.76000    0.07000    0.29100    1.000
    Mn19     Mn       0.83428    0.76831    0.15592    1.000
    O79      O        0.64050    0.66830    0.09980    1.000
    Mn20     Mn       0.67876    0.75909    0.04724    1.000
    O80      O        0.79050    0.68090    0.02949    1.000
    Mn21     Mn       0.75278    0.95296    0.11445    1.000
    O81      O        0.07450    0.33710    0.05790    1.000
    O82      O        0.11240    0.45240    0.10090    1.000
    O83      O        0.77440    0.83420    0.08846    1.000
    O84      O        0.72700    0.69090    0.17010    1.000
    O85      O        0.87540    0.67200    0.10320    1.000
    O86      O        0.73930    0.43490    0.92300    1.000
    C109     C        0.84450    0.64420    0.06120    1.000
    C110     C        0.68730    0.54000    0.21010    1.000
    C111     C        0.64130    0.57140    0.16670    1.000
    C112     C        0.66270    0.46450    0.23030    1.000
    C113     C        0.94880    0.52440    0.06890    1.000
    C114     C        0.97400    0.44750    0.05430    1.000
    O87      O        0.39890    0.46350    0.12540    1.000
    C115     C        0.87220    0.55940    0.04700    1.000
    C116     C        0.56790    0.53160    0.14720    1.000
    O88      O        0.45000    0.34200    0.15300    1.000
    C117     C        0.84490    0.43810    0.99520    1.000
    C118     C        0.67320    0.64980    0.14330    1.000
    C119     C        0.82140    0.51420    0.01040    1.000
    C120     C        0.92080    0.40460    0.01750    1.000
    C121     C        0.06120    0.40990    0.07260    1.000
    C122     C        0.54080    0.45860    0.16650    1.000
    C123     C        0.45780    0.41840    0.14660    1.000
    C124     C        0.70870    0.43180    0.27840    1.000
    C125     C        0.59080    0.42350    0.20800    1.000
    C126     C        0.79310    0.39470    0.95220    1.000
    O89      O        0.74860    0.48440    0.30830    1.000
    O90      O        0.70320    0.35760    0.28920    1.000
    O91      O        0.80260    0.31970    0.94810    1.000
    H37      H        0.55200    0.55100    0.12100    1.000
    H38      H        0.98200    0.55500    0.09200    1.000
    H39      H        0.56900    0.37700    0.21900    1.000
    H40      H        0.94000    0.35900    0.01300    1.000
    H41      H        0.77800    0.53000    0.00000    1.000
    H42      H        0.74000    0.57000    0.20900    1.000
    Mn22     Mn       0.33428    0.26831    0.15592    1.000
    O92      O        0.14050    0.16830    0.09980    1.000
    Mn23     Mn       0.17876    0.25909    0.04724    1.000
    O93      O        0.29050    0.18090    0.02949    1.000
    Mn24     Mn       0.25278    0.45296    0.11445    1.000
    O94      O        0.57450    0.83710    0.05790    1.000
    O95      O        0.61240    0.95240    0.10090    1.000
    O96      O        0.27440    0.33420    0.08846    1.000
    O97      O        0.22700    0.19090    0.17010    1.000
    O98      O        0.37540    0.17200    0.10320    1.000
    O99      O        0.23930    0.93490    0.92300    1.000
    C127     C        0.34450    0.14420    0.06120    1.000
    C128     C        0.18730    0.04000    0.21010    1.000
    C129     C        0.14130    0.07140    0.16670    1.000
    C130     C        0.16270    0.96450    0.23030    1.000
    C131     C        0.44880    0.02440    0.06890    1.000
    C132     C        0.47400    0.94750    0.05430    1.000
    O100     O        0.89890    0.96350    0.12540    1.000
    C133     C        0.37220    0.05940    0.04700    1.000
    C134     C        0.06790    0.03160    0.14720    1.000
    O101     O        0.95000    0.84200    0.15300    1.000
    C135     C        0.34490    0.93810    0.99520    1.000
    C136     C        0.17320    0.14980    0.14330    1.000
    C137     C        0.32140    0.01420    0.01040    1.000
    C138     C        0.42080    0.90460    0.01750    1.000
    C139     C        0.56120    0.90990    0.07260    1.000
    C140     C        0.04080    0.95860    0.16650    1.000
    C141     C        0.95780    0.91840    0.14660    1.000
    C142     C        0.20870    0.93180    0.27840    1.000
    C143     C        0.09080    0.92350    0.20800    1.000
    C144     C        0.29310    0.89470    0.95220    1.000
    O102     O        0.24860    0.98440    0.30830    1.000
    O103     O        0.20320    0.85760    0.28920    1.000
    O104     O        0.30260    0.81970    0.94810    1.000
    H43      H        0.05200    0.05100    0.12100    1.000
    H44      H        0.48200    0.05500    0.09200    1.000
    H45      H        0.06900    0.87700    0.21900    1.000
    H46      H        0.44000    0.85900    0.01300    1.000
    H47      H        0.27800    0.03000    0.00000    1.000
    H48      H        0.24000    0.07000    0.20900    1.000
