# CIF file generated by openbabel 3.1.0, see https://openbabel.org
data_I
_chemical_name_common 'IYUHUG_ion_b'
_cell_length_a 22.1386
_cell_length_b 22.1386
_cell_length_c 36.2651
_cell_angle_alpha 90
_cell_angle_beta 90
_cell_angle_gamma 90
_space_group_name_H-M_alt 'P 1'
_space_group_name_Hall 'P 1'
loop_
    _symmetry_equiv_pos_as_xyz
    x,y,z
loop_
    _atom_site_label
    _atom_site_type_symbol
    _atom_site_fract_x
    _atom_site_fract_y
    _atom_site_fract_z
    _atom_site_occupancy
    In1      In       0.21649    0.50344    0.65404    1.000
    In2      In       0.15662    0.50044    0.73829    1.000
    In3      In       0.80831    0.98284    0.52189    1.000
    O4       O        0.30360    0.94336    0.97804    1.000
    O5       O        0.20315    0.95456    0.98217    1.000
    O6       O        0.18053    0.56794    0.77079    1.000
    O7       O        0.27796    0.58559    0.75778    1.000
    O8       O        0.14970    0.56449    0.65465    1.000
    O9       O        0.10846    0.56012    0.71118    1.000
    O10      O        0.77955    0.93489    0.60949    1.000
    O11      O        0.84167    0.93115    0.56070    1.000
    O12      O        0.15605    0.43541    0.65423    1.000
    O13      O        0.11606    0.43313    0.71094    1.000
    O14      O        0.77855    0.06165    0.60132    1.000
    O15      O        0.84016    0.05163    0.55233    1.000
    O16      O        0.88469    0.96124    0.49440    1.000
    O17      O        0.08710    0.50167    0.77194    1.000
    O18      O        0.04422    0.41103    0.79662    1.000
    O19      O        0.22609    0.51759    0.70682    1.000
    O20      O        0.20265    0.50897    0.60013    1.000
    N21      N        0.21545    0.66294    0.49310    1.000
    C22      C        0.11052    0.58179    0.67863    1.000
    C23      C        0.06475    0.62871    0.66861    1.000
    C24      C        0.04825    0.63766    0.63171    1.000
    H25      H        0.06819    0.61029    0.61024    1.000
    C26      C        0.00579    0.68180    0.62202    1.000
    H27      H        0.99442    0.68733    0.59318    1.000
    C28      C        0.97872    0.71889    0.64895    1.000
    C29      C        0.99307    0.70823    0.68616    1.000
    H30      H        0.97289    0.73560    0.70766    1.000
    C31      C        0.03561    0.66367    0.69589    1.000
    H32      H        0.04657    0.65752    0.72476    1.000
    C33      C        0.82675    0.91444    0.59315    1.000
    C34      C        0.95673    0.80495    0.60660    1.000
    H35      H        0.99809    0.79496    0.59204    1.000
    C36      C        0.92117    0.85243    0.59393    1.000
    H37      H        0.93669    0.87679    0.57013    1.000
    C38      C        0.86634    0.86773    0.61103    1.000
    C39      C        0.84971    0.83517    0.64292    1.000
    H40      H        0.80803    0.84549    0.65710    1.000
    C41      C        0.88624    0.78735    0.65609    1.000
    H42      H        0.87193    0.76231    0.68020    1.000
    C43      C        0.93970    0.77086    0.63741    1.000
    C44      C        0.22878    0.59932    0.77420    1.000
    C45      C        0.22756    0.65375    0.79854    1.000
    C46      C        0.27656    0.69412    0.79893    1.000
    H47      H        0.31504    0.68676    0.78122    1.000
    C48      C        0.27786    0.74330    0.82319    1.000
    H49      H        0.31685    0.77284    0.82250    1.000
    C50      C        0.23061    0.75310    0.84849    1.000
    C51      C        0.18052    0.71379    0.84725    1.000
    H52      H        0.14335    0.71932    0.86634    1.000
    C53      C        0.17882    0.66514    0.82240    1.000
    H54      H        0.13993    0.63546    0.82271    1.000
    C55      C        0.23517    0.80159    0.87733    1.000
    C56      C        0.18351    0.83178    0.89073    1.000
    H57      H        0.13962    0.82309    0.87867    1.000
    C58      C        0.18776    0.87377    0.91978    1.000
    H59      H        0.14727    0.89661    0.92894    1.000
    C60      C        0.24373    0.88613    0.93656    1.000
    C61      C        0.29535    0.85710    0.92238    1.000
    H62      H        0.33949    0.86579    0.93408    1.000
    C63      C        0.29134    0.81620    0.89310    1.000
    H64      H        0.33248    0.79489    0.88362    1.000
    C65      C        0.25008    0.93048    0.96757    1.000
    C66      C        0.11856    0.41327    0.67778    1.000
    C67      C        0.07511    0.36347    0.66563    1.000
    C68      C        0.07375    0.34427    0.62872    1.000
    H69      H        0.10437    0.36437    0.60896    1.000
    C70      C        0.03279    0.29996    0.61619    1.000
    H71      H        0.03482    0.28954    0.58724    1.000
    C72      C        0.99079    0.27101    0.63988    1.000
    C73      C        0.99191    0.29092    0.67725    1.000
    H74      H        0.96153    0.27187    0.69742    1.000
    C75      C        0.03274    0.33630    0.68974    1.000
    H76      H        0.03076    0.35017    0.71840    1.000
    C77      C        0.94710    0.22143    0.62546    1.000
    C78      C        0.95101    0.19841    0.58891    1.000
    H79      H        0.98503    0.21393    0.56990    1.000
    C80      C        0.91138    0.15359    0.57534    1.000
    H81      H        0.91668    0.13868    0.54708    1.000
    C82      C        0.86584    0.12808    0.59746    1.000
    C83      C        0.86142    0.14991    0.63395    1.000
    H84      H        0.82792    0.13100    0.65240    1.000
    C85      C        0.90063    0.19572    0.64753    1.000
    H86      H        0.89371    0.21039    0.67560    1.000
    C87      C        0.82553    0.07769    0.58279    1.000
    C88      C        0.06561    0.45630    0.78424    1.000
    C89      C        0.27383    0.64158    0.50692    1.000
    In90     In       0.78377    0.49703    0.15400    1.000
    In91     In       0.84306    0.49953    0.23820    1.000
    In92     In       0.19150    0.01656    0.02154    1.000
    O93      O        0.69609    0.05703    0.47856    1.000
    O94      O        0.79656    0.04493    0.48256    1.000
    O95      O        0.82016    0.43228    0.27106    1.000
    O96      O        0.72270    0.41416    0.25728    1.000
    O97      O        0.85120    0.43652    0.15409    1.000
    O98      O        0.89089    0.43958    0.21104    1.000
    O99      O        0.22061    0.06519    0.10884    1.000
    O100     O        0.15786    0.06799    0.06028    1.000
    O101     O        0.84496    0.56445    0.15424    1.000
    O102     O        0.88398    0.56693    0.21110    1.000
    O103     O        0.22140    0.93774    0.10083    1.000
    O104     O        0.15959    0.94788    0.05189    1.000
    O105     O        0.11489    0.03811    0.99415    1.000
    O106     O        0.91251    0.49887    0.27190    1.000
    O107     O        0.95462    0.58993    0.29653    1.000
    O108     O        0.77306    0.48290    0.20681    1.000
    O109     O        0.79299    0.49266    0.09969    1.000
    N110     N        0.78136    0.33629    0.99270    1.000
    C111     C        0.88970    0.41856    0.17830    1.000
    C112     C        0.93558    0.37156    0.16831    1.000
    C113     C        0.95191    0.36239    0.13138    1.000
    H114     H        0.93189    0.38955    0.10987    1.000
    C115     C        0.99410    0.31801    0.12169    1.000
    H116     H        0.00520    0.31219    0.09283    1.000
    C117     C        0.02112    0.28086    0.14857    1.000
    C118     C        0.00690    0.29156    0.18581    1.000
    H119     H        0.02688    0.26393    0.20723    1.000
    C120     C        0.96459    0.33635    0.19558    1.000
    H121     H        0.95359    0.34237    0.22445    1.000
    C122     C        0.17306    0.08519    0.09259    1.000
    C123     C        0.04269    0.19456    0.10618    1.000
    H124     H        0.00117    0.20440    0.09182    1.000
    C125     C        0.07833    0.14714    0.09345    1.000
    H126     H        0.06261    0.12253    0.06977    1.000
    C127     C        0.13339    0.13203    0.11043    1.000
    C128     C        0.15013    0.16480    0.14216    1.000
    H129     H        0.19188    0.15464    0.15610    1.000
    C130     C        0.11359    0.21247    0.15542    1.000
    H131     H        0.12803    0.23758    0.17948    1.000
    C132     C        0.05992    0.22880    0.13690    1.000
    C133     C        0.77202    0.40068    0.27409    1.000
    C134     C        0.77257    0.34622    0.29861    1.000
    C135     C        0.72343    0.30592    0.29916    1.000
    H136     H        0.68502    0.31301    0.28132    1.000
    C137     C        0.72201    0.25688    0.32361    1.000
    H138     H        0.68308    0.22724    0.32305    1.000
    C139     C        0.76932    0.24708    0.34890    1.000
    C140     C        0.81949    0.28623    0.34748    1.000
    H141     H        0.85682    0.28054    0.36644    1.000
    C142     C        0.82125    0.33480    0.32256    1.000
    H143     H        0.86020    0.36428    0.32270    1.000
    C144     C        0.76480    0.19873    0.37791    1.000
    C145     C        0.81637    0.16817    0.39115    1.000
    H146     H        0.86013    0.17637    0.37884    1.000
    C147     C        0.81211    0.12639    0.42031    1.000
    H148     H        0.85253    0.10333    0.42941    1.000
    C149     C        0.75618    0.11434    0.43726    1.000
    C150     C        0.70464    0.14377    0.42328    1.000
    H151     H        0.66050    0.13505    0.43487    1.000
    C152     C        0.70870    0.18462    0.39396    1.000
    H153     H        0.66765    0.20620    0.38457    1.000
    C154     C        0.74972    0.06960    0.46811    1.000
    C155     C        0.88206    0.58666    0.17792    1.000
    C156     C        0.92554    0.63640    0.16586    1.000
    C157     C        0.92660    0.65579    0.12900    1.000
    H158     H        0.89584    0.63589    0.10927    1.000
    C159     C        0.96736    0.70016    0.11645    1.000
    H160     H        0.96513    0.71053    0.08750    1.000
    C161     C        0.00942    0.72912    0.14009    1.000
    C162     C        0.00851    0.70918    0.17747    1.000
    H163     H        0.03896    0.72824    0.19762    1.000
    C164     C        0.96787    0.66361    0.18995    1.000
    H165     H        0.96986    0.64969    0.21859    1.000
    C166     C        0.05289    0.77868    0.12550    1.000
    C167     C        0.04867    0.80149    0.08893    1.000
    H168     H        0.01452    0.78594    0.07005    1.000
    C169     C        0.08817    0.84619    0.07515    1.000
    H170     H        0.08249    0.86117    0.04692    1.000
    C171     C        0.13397    0.87167    0.09710    1.000
    C172     C        0.13849    0.85026    0.13368    1.000
    H173     H        0.17188    0.86957    0.15201    1.000
    C174     C        0.09939    0.80459    0.14746    1.000
    H175     H        0.10636    0.79020    0.17556    1.000
    C176     C        0.17438    0.92180    0.08233    1.000
    C177     C        0.93364    0.54445    0.28420    1.000
    C178     C        0.72585    0.36015    0.00912    1.000
    In179    In       0.99758    0.71605    0.40403    1.000
    In180    In       0.99963    0.65675    0.48832    1.000
    In181    In       0.51695    0.30875    0.27169    1.000
    O182     O        0.55671    0.80358    0.72804    1.000
    O183     O        0.54575    0.70310    0.73245    1.000
    O184     O        0.93247    0.67991    0.52106    1.000
    O185     O        0.91415    0.77703    0.50716    1.000
    O186     O        0.93710    0.64872    0.40423    1.000
    O187     O        0.93961    0.60900    0.46126    1.000
    O188     O        0.56628    0.27933    0.35907    1.000
    O189     O        0.56752    0.34283    0.31085    1.000
    O190     O        0.06490    0.65500    0.40433    1.000
    O191     O        0.06714    0.61574    0.46111    1.000
    O192     O        0.43877    0.27882    0.35104    1.000
    O193     O        0.44809    0.34029    0.30196    1.000
    O194     O        0.53833    0.38501    0.24419    1.000
    O195     O        0.99884    0.58715    0.52187    1.000
    O196     O        0.08973    0.54489    0.54683    1.000
    O197     O        0.98329    0.72640    0.45681    1.000
    O198     O        0.99391    0.70446    0.34991    1.000
    N199     N        0.84236    0.71869    0.24312    1.000
    C200     C        0.91886    0.61031    0.42844    1.000
    C201     C        0.87177    0.56473    0.41842    1.000
    C202     C        0.86257    0.54850    0.38148    1.000
    H203     H        0.88966    0.56877    0.35996    1.000
    C204     C        0.81829    0.50622    0.37177    1.000
    H205     H        0.81264    0.49498    0.34292    1.000
    C206     C        0.78116    0.47923    0.39867    1.000
    C207     C        0.79181    0.49351    0.43590    1.000
    H208     H        0.76427    0.47347    0.45737    1.000
    C209     C        0.83650    0.53587    0.44567    1.000
    H210     H        0.84236    0.54708    0.47452    1.000
    C211     C        0.58538    0.32740    0.34301    1.000
    C212     C        0.69475    0.45769    0.35646    1.000
    H213     H        0.70470    0.49913    0.34198    1.000
    C214     C        0.64705    0.42228    0.34390    1.000
    H215     H        0.62230    0.43810    0.32027    1.000
    C216     C        0.63206    0.36723    0.36085    1.000
    C217     C        0.66496    0.35037    0.39249    1.000
    H218     H        0.65481    0.30856    0.40638    1.000
    C219     C        0.71281    0.38676    0.40565    1.000
    H220     H        0.73809    0.37219    0.42963    1.000
    C221     C        0.72914    0.44041    0.38711    1.000
    C222     C        0.90078    0.72791    0.52402    1.000
    C223     C        0.84631    0.72721    0.54846    1.000
    C224     C        0.80599    0.77624    0.54893    1.000
    H225     H        0.81317    0.81466    0.53114    1.000
    C226     C        0.75694    0.77768    0.57334    1.000
    H227     H        0.72736    0.81666    0.57273    1.000
    C228     C        0.74720    0.73042    0.59869    1.000
    C229     C        0.78638    0.68029    0.59737    1.000
    H230     H        0.78077    0.64314    0.61643    1.000
    C231     C        0.83491    0.67848    0.57246    1.000
    H232     H        0.86445    0.63956    0.57268    1.000
    C233     C        0.69883    0.73507    0.62765    1.000
    C234     C        0.66858    0.68343    0.64104    1.000
    H235     H        0.67702    0.63957    0.62887    1.000
    C236     C        0.62673    0.68766    0.67015    1.000
    H237     H        0.60389    0.64725    0.67934    1.000
    C238     C        0.61441    0.74361    0.68691    1.000
    C239     C        0.64349    0.79527    0.67274    1.000
    H240     H        0.63447    0.83951    0.68417    1.000
    C241     C        0.68442    0.79124    0.64348    1.000
    H242     H        0.70569    0.83231    0.63396    1.000
    C243     C        0.56980    0.75004    0.71779    1.000
    C244     C        0.08701    0.61782    0.42796    1.000
    C245     C        0.13676    0.57448    0.41590    1.000
    C246     C        0.15622    0.57334    0.37905    1.000
    H247     H        0.13632    0.60412    0.35928    1.000
    C248     C        0.20052    0.53240    0.36654    1.000
    H249     H        0.21089    0.53455    0.33759    1.000
    C250     C        0.22933    0.49029    0.39022    1.000
    C251     C        0.20929    0.49137    0.42758    1.000
    H252     H        0.22821    0.46086    0.44775    1.000
    C253     C        0.16383    0.53220    0.44003    1.000
    H254     H        0.14976    0.53034    0.46864    1.000
    C255     C        0.27884    0.44663    0.37573    1.000
    C256     C        0.30162    0.45071    0.33914    1.000
    H257     H        0.28609    0.48482    0.32023    1.000
    C258     C        0.34630    0.41124    0.32536    1.000
    H259     H        0.36117    0.41681    0.29709    1.000
    C260     C        0.37199    0.36563    0.34731    1.000
    C261     C        0.35050    0.36095    0.38385    1.000
    H262     H        0.36978    0.32741    0.40212    1.000
    C263     C        0.30476    0.40004    0.39769    1.000
    H264     H        0.29037    0.39303    0.42580    1.000
    C265     C        0.42234    0.32556    0.33247    1.000
    C266     C        0.04439    0.56596    0.53433    1.000
    C267     C        0.86140    0.77673    0.25854    1.000
    In268    In       0.00380    0.28367    0.90362    1.000
    In269    In       0.00124    0.34298    0.98800    1.000
    In270    In       0.48344    0.69125    0.77163    1.000
    O271     O        0.44310    0.19589    0.22882    1.000
    O272     O        0.45482    0.29642    0.23255    1.000
    O273     O        0.06759    0.31890    0.02135    1.000
    O274     O        0.08672    0.22223    0.00694    1.000
    O275     O        0.06456    0.35094    0.90365    1.000
    O276     O        0.06137    0.39036    0.96065    1.000
    O277     O        0.43535    0.72110    0.85910    1.000
    O278     O        0.43210    0.65824    0.81055    1.000
    O279     O        0.93668    0.34504    0.90411    1.000
    O280     O        0.93339    0.38367    0.96113    1.000
    O281     O        0.56283    0.72168    0.85087    1.000
    O282     O        0.55208    0.65955    0.80223    1.000
    O283     O        0.46163    0.61422    0.74457    1.000
    O284     O        0.00398    0.41318    0.02114    1.000
    O285     O        0.91511    0.45695    0.04754    1.000
    O286     O        0.01702    0.27315    0.95651    1.000
    O287     O        0.00358    0.29304    0.84916    1.000
    N288     N        0.16858    0.28136    0.74391    1.000
    C289     C        0.08242    0.38935    0.92792    1.000
    C290     C        0.12920    0.43548    0.91804    1.000
    C291     C        0.13823    0.45223    0.88116    1.000
    H292     H        0.11115    0.43225    0.85959    1.000
    C293     C        0.18233    0.49479    0.87162    1.000
    H294     H        0.18811    0.50618    0.84280    1.000
    C295     C        0.21932    0.52175    0.89862    1.000
    C296     C        0.20862    0.50726    0.93580    1.000
    H297     H        0.23607    0.52731    0.95730    1.000
    C298     C        0.16410    0.46461    0.94540    1.000
    H299     H        0.15806    0.45344    0.97424    1.000
    C300     C        0.41511    0.67358    0.84290    1.000
    C301     C        0.30574    0.54325    0.85646    1.000
    H302     H        0.29583    0.50178    0.84205    1.000
    C303     C        0.35328    0.57879    0.84385    1.000
    H304     H        0.37801    0.56291    0.82026    1.000
    C305     C        0.36829    0.63394    0.86079    1.000
    C306     C        0.33545    0.65077    0.89246    1.000
    H307     H        0.34559    0.69261    0.90631    1.000
    C308     C        0.28776    0.61418    0.90569    1.000
    H309     H        0.26260    0.62855    0.92976    1.000
    C310     C        0.27144    0.56054    0.88711    1.000
    C311     C        0.09971    0.27105    0.02414    1.000
    C312     C        0.15406    0.27187    0.04880    1.000
    C313     C        0.19458    0.22291    0.04932    1.000
    H314     H        0.18753    0.18449    0.03155    1.000
    C315     C        0.24359    0.22163    0.07379    1.000
    H316     H        0.27329    0.18271    0.07328    1.000
    C317     C        0.25322    0.26891    0.09910    1.000
    C318     C        0.21400    0.31903    0.09769    1.000
    H319     H        0.21967    0.35635    0.11663    1.000
    C320     C        0.16533    0.32055    0.07280    1.000
    H321     H        0.13562    0.35939    0.07305    1.000
    C322     C        0.30134    0.26426    0.12819    1.000
    C323     C        0.33223    0.31574    0.14121    1.000
    H324     H        0.32442    0.35941    0.12867    1.000
    C325     C        0.37389    0.31152    0.17041    1.000
    H326     H        0.39732    0.35184    0.17930    1.000
    C327     C        0.38547    0.25571    0.18761    1.000
    C328     C        0.35565    0.20417    0.17389    1.000
    H329     H        0.36387    0.16010    0.18582    1.000
    C330     C        0.31487    0.20823    0.14451    1.000
    H331     H        0.29299    0.16730    0.13527    1.000
    C332     C        0.43025    0.24940    0.21834    1.000
    C333     C        0.91392    0.38171    0.92788    1.000
    C334     C        0.86389    0.42484    0.91582    1.000
    C335     C        0.84450    0.42595    0.87893    1.000
    H336     H        0.86442    0.39518    0.85919    1.000
    C337     C        0.80013    0.46680    0.86637    1.000
    H338     H        0.78971    0.46465    0.83743    1.000
    C339     C        0.77118    0.50883    0.89005    1.000
    C340     C        0.79103    0.50769    0.92743    1.000
    H341     H        0.77191    0.53806    0.94762    1.000
    C342     C        0.83648    0.46693    0.93994    1.000
    H343     H        0.85019    0.46875    0.96862    1.000
    C344     C        0.72158    0.55245    0.87561    1.000
    C345     C        0.69863    0.54844    0.83905    1.000
    H346     H        0.71421    0.51442    0.82009    1.000
    C347     C        0.65387    0.58806    0.82542    1.000
    H348     H        0.63875    0.58245    0.79721    1.000
    C349     C        0.62850    0.63379    0.84740    1.000
    C350     C        0.65004    0.63813    0.88401    1.000
    H351     H        0.63077    0.67136    0.90248    1.000
    C352     C        0.69574    0.59889    0.89766    1.000
    H353     H        0.71031    0.60575    0.92575    1.000
    C354     C        0.57843    0.67443    0.83260    1.000
    C355     C        0.95948    0.43509    0.03429    1.000
    C356     C        0.14163    0.22611    0.75860    1.000
    In357    In       0.28350    0.00329    0.09567    1.000
    In358    In       0.34315    0.00066    0.01149    1.000
    In359    In       0.69189    0.48333    0.22796    1.000
    O360     O        0.19605    0.44257    0.77127    1.000
    O361     O        0.29647    0.45449    0.76726    1.000
    O362     O        0.32019    0.06880    0.97937    1.000
    O363     O        0.22250    0.08584    0.99237    1.000
    O364     O        0.35082    0.06397    0.09561    1.000
    O365     O        0.39090    0.06051    0.03875    1.000
    O366     O        0.72101    0.43530    0.14039    1.000
    O367     O        0.65811    0.43184    0.18886    1.000
    O368     O        0.34527    0.93639    0.09586    1.000
    O369     O        0.38427    0.93363    0.03899    1.000
    O370     O        0.72166    0.56242    0.14872    1.000
    O371     O        0.66004    0.55225    0.19787    1.000
    O372     O        0.61469    0.46146    0.25522    1.000
    O373     O        0.41277    0.00098    0.97794    1.000
    O374     O        0.45488    0.90975    0.95351    1.000
    O375     O        0.27315    0.01635    0.04283    1.000
    O376     O        0.29183    0.00787    0.15000    1.000
    N377     N        0.28188    0.16803    0.26225    1.000
    C378     C        0.38953    0.08169    0.07145    1.000
    C379     C        0.43553    0.12858    0.08139    1.000
    C380     C        0.45220    0.13771    0.11827    1.000
    H381     H        0.43225    0.11062    0.13985    1.000
    C382     C        0.49468    0.18192    0.12782    1.000
    H383     H        0.50603    0.18767    0.15665    1.000
    C384     C        0.52162    0.21899    0.10084    1.000
    C385     C        0.50709    0.20823    0.06365    1.000
    H386     H        0.52704    0.23566    0.04213    1.000
    C387     C        0.46450    0.16362    0.05404    1.000
    H388     H        0.45326    0.15759    0.02521    1.000
    C389     C        0.67351    0.41497    0.15655    1.000
    C390     C        0.54384    0.30489    0.14338    1.000
    H391     H        0.50272    0.29467    0.15809    1.000
    C392     C        0.57945    0.35236    0.15599    1.000
    H393     H        0.56406    0.37649    0.17992    1.000
    C394     C        0.63403    0.36807    0.13864    1.000
    C395     C        0.65030    0.33583    0.10659    1.000
    H396     H        0.69158    0.34653    0.09218    1.000
    C397     C        0.61367    0.28806    0.09345    1.000
    H398     H        0.62761    0.26339    0.06911    1.000
    C399     C        0.56054    0.27110    0.11238    1.000
    C400     C        0.27177    0.09988    0.97598    1.000
    C401     C        0.27244    0.15423    0.95148    1.000
    C402     C        0.22314    0.19432    0.95073    1.000
    H403     H        0.18468    0.18718    0.96851    1.000
    C404     C        0.22164    0.24309    0.92611    1.000
    H405     H        0.18258    0.27260    0.92645    1.000
    C406     C        0.26900    0.25278    0.90089    1.000
    C407     C        0.31931    0.21386    0.90246    1.000
    H408     H        0.35662    0.21951    0.88348    1.000
    C409     C        0.32115    0.16553    0.92752    1.000
    H410     H        0.36015    0.13607    0.92743    1.000
    C411     C        0.26448    0.30085    0.87182    1.000
    C412     C        0.31594    0.33211    0.85909    1.000
    H413     H        0.35948    0.32453    0.87186    1.000
    C414     C        0.31185    0.37377    0.82987    1.000
    H415     H        0.35221    0.39730    0.82111    1.000
    C416     C        0.25608    0.38521    0.81254    1.000
    C417     C        0.20461    0.35513    0.82608    1.000
    H418     H        0.16064    0.36316    0.81401    1.000
    C419     C        0.20859    0.31406    0.85525    1.000
    H420     H        0.16772    0.29166    0.86416    1.000
    C421     C        0.24964    0.42990    0.78172    1.000
    C422     C        0.38259    0.91427    0.07227    1.000
    C423     C        0.42640    0.86483    0.08449    1.000
    C424     C        0.42655    0.84448    0.12118    1.000
    H425     H        0.39516    0.86377    0.14076    1.000
    C426     C        0.46711    0.79984    0.13372    1.000
    H427     H        0.46413    0.78866    0.16254    1.000
    C428     C        0.50980    0.77151    0.11022    1.000
    C429     C        0.50995    0.79258    0.07308    1.000
    H430     H        0.54090    0.77408    0.05301    1.000
    C431     C        0.46979    0.83861    0.06068    1.000
    H432     H        0.47295    0.85355    0.03228    1.000
    C433     C        0.55302    0.72160    0.12466    1.000
    C434     C        0.54881    0.69853    0.16119    1.000
    H435     H        0.51474    0.71404    0.18014    1.000
    C436     C        0.58833    0.65367    0.17481    1.000
    H437     H        0.58271    0.63850    0.20302    1.000
    C438     C        0.63411    0.62837    0.15276    1.000
    C439     C        0.63844    0.64989    0.11621    1.000
    H440     H        0.67172    0.63062    0.09780    1.000
    C441     C        0.59934    0.69564    0.10258    1.000
    H442     H        0.60619    0.70997    0.07447    1.000
    C443     C        0.67474    0.57834    0.16742    1.000
    C444     C        0.43390    0.95530    0.96575    1.000
    C445     C        0.22859    0.14160    0.24484    1.000
    In446    In       0.71624    0.99614    0.59592    1.000
    In447    In       0.65655    0.99929    0.51164    1.000
    In448    In       0.30818    0.51689    0.72796    1.000
    O449     O        0.80335    0.55745    0.27106    1.000
    O450     O        0.70293    0.54547    0.26714    1.000
    O451     O        0.67983    0.93142    0.47933    1.000
    O452     O        0.77720    0.91378    0.49268    1.000
    O453     O        0.64972    0.93482    0.59521    1.000
    O454     O        0.60844    0.93954    0.53872    1.000
    O455     O        0.27978    0.56462    0.64038    1.000
    O456     O        0.34176    0.56813    0.68923    1.000
    O457     O        0.65460    0.06308    0.59614    1.000
    O458     O        0.61524    0.06602    0.53928    1.000
    O459     O        0.27909    0.43830    0.64883    1.000
    O460     O        0.34074    0.44835    0.69774    1.000
    O461     O        0.38472    0.53845    0.75519    1.000
    O462     O        0.58716    0.99835    0.47781    1.000
    O463     O        0.54416    0.08914    0.45341    1.000
    O464     O        0.72634    0.98319    0.54307    1.000
    O465     O        0.70299    0.99099    0.64990    1.000
    N466     N        0.71773    0.83666    0.75884    1.000
    C467     C        0.61043    0.91778    0.57125    1.000
    C468     C        0.56437    0.87115    0.58128    1.000
    C469     C        0.54739    0.86269    0.61815    1.000
    H470     H        0.56693    0.89047    0.63956    1.000
    C471     C        0.50502    0.81849    0.62789    1.000
    H472     H        0.49343    0.81314    0.65672    1.000
    C473     C        0.47835    0.78104    0.60101    1.000
    C474     C        0.49280    0.79152    0.56379    1.000
    H475     H        0.47272    0.76401    0.54231    1.000
    C476     C        0.53535    0.83602    0.55404    1.000
    H477     H        0.54644    0.84200    0.52519    1.000
    C478     C        0.32701    0.58489    0.65678    1.000
    C479     C        0.45673    0.69501    0.64344    1.000
    H480     H        0.49798    0.70525    0.65804    1.000
    C481     C        0.42132    0.64738    0.65609    1.000
    H482     H        0.43674    0.62319    0.67994    1.000
    C483     C        0.36665    0.63168    0.63891    1.000
    C484     C        0.35009    0.66406    0.60694    1.000
    H485     H        0.30861    0.65335    0.59268    1.000
    C486     C        0.38637    0.71209    0.59380    1.000
    H487     H        0.37207    0.73703    0.56964    1.000
    C488     C        0.43963    0.72891    0.61257    1.000
    C489     C        0.72813    0.90006    0.47609    1.000
    C490     C        0.72740    0.84579    0.45153    1.000
    C491     C        0.77668    0.80568    0.45072    1.000
    H492     H        0.81532    0.81289    0.46838    1.000
    C493     C        0.77814    0.75694    0.42606    1.000
    H494     H        0.81726    0.72748    0.42634    1.000
    C495     C        0.73075    0.74731    0.40083    1.000
    C496     C        0.68050    0.78634    0.40244    1.000
    H497     H        0.64319    0.78089    0.38344    1.000
    C498     C        0.67875    0.83463    0.42755    1.000
    H499     H        0.63993    0.86431    0.42740    1.000
    C500     C        0.73530    0.69936    0.37168    1.000
    C501     C        0.68385    0.66803    0.35898    1.000
    H502     H        0.64035    0.67544    0.37186    1.000
    C503     C        0.68793    0.62639    0.32974    1.000
    H504     H        0.64764    0.60266    0.32108    1.000
    C505     C        0.74356    0.61514    0.31225    1.000
    C506     C        0.79506    0.64532    0.32574    1.000
    H507     H        0.83905    0.63727    0.31367    1.000
    C508     C        0.79113    0.68621    0.35506    1.000
    H509     H        0.83209    0.70839    0.36407    1.000
    C510     C        0.74982    0.57027    0.28149    1.000
    C511     C        0.61706    0.08517    0.57262    1.000
    C512     C        0.57310    0.13439    0.58496    1.000
    C513     C        0.57291    0.15477    0.62165    1.000
    H514     H        0.60418    0.13544    0.64130    1.000
    C515     C        0.53252    0.19966    0.63408    1.000
    H516     H        0.53558    0.21115    0.66286    1.000
    C517     C        0.48990    0.22798    0.61050    1.000
    C518     C        0.48980    0.20679    0.57340    1.000
    H519     H        0.45898    0.22534    0.55329    1.000
    C520     C        0.52995    0.16073    0.56106    1.000
    H521     H        0.52720    0.14605    0.53259    1.000
    C522     C        0.44680    0.27815    0.62476    1.000
    C523     C        0.45102    0.30138    0.66125    1.000
    H524     H        0.48495    0.28587    0.68028    1.000
    C525     C        0.41166    0.34636    0.67478    1.000
    H526     H        0.41715    0.36153    0.70293    1.000
    C527     C        0.36617    0.37188    0.65262    1.000
    C528     C        0.36161    0.35008    0.61616    1.000
    H529     H        0.32828    0.36924    0.59765    1.000
    C530     C        0.40058    0.30414    0.60261    1.000
    H531     H        0.39371    0.28955    0.57452    1.000
    C532     C        0.32618    0.42233    0.66737    1.000
    C533     C        0.56559    0.04377    0.46564    1.000
    C534     C        0.77256    0.86217    0.74252    1.000
    In535    In       0.50411    0.21657    0.34611    1.000
    In536    In       0.50129    0.15694    0.26185    1.000
    In537    In       0.98329    0.80845    0.47794    1.000
    O538     O        0.94289    0.30396    0.02085    1.000
    O539     O        0.95494    0.20345    0.01708    1.000
    O540     O        0.56821    0.18076    0.22886    1.000
    O541     O        0.58669    0.27771    0.24279    1.000
    O542     O        0.56480    0.14922    0.34618    1.000
    O543     O        0.56133    0.10963    0.28923    1.000
    O544     O        0.93580    0.77875    0.39020    1.000
    O545     O        0.93206    0.84144    0.43882    1.000
    O546     O        0.43728    0.15480    0.34601    1.000
    O547     O        0.43390    0.11599    0.28902    1.000
    O548     O        0.06293    0.77830    0.39881    1.000
    O549     O        0.05194    0.84035    0.44745    1.000
    O550     O        0.96127    0.88490    0.50522    1.000
    O551     O        0.50393    0.08688    0.22857    1.000
    O552     O        0.41502    0.04279    0.20240    1.000
    O553     O        0.51680    0.22699    0.29316    1.000
    O554     O        0.50431    0.20828    0.40065    1.000
    N555     N        0.65958    0.21699    0.51247    1.000
    C556     C        0.58247    0.11069    0.32193    1.000
    C557     C        0.62916    0.06446    0.33174    1.000
    C558     C        0.63803    0.04728    0.36855    1.000
    H559     H        0.61083    0.06699    0.39016    1.000
    C560     C        0.68212    0.00463    0.37796    1.000
    H561     H        0.68782    0.99299    0.40675    1.000
    C562     C        0.71918    0.97793    0.35089    1.000
    C563     C        0.70845    0.99271    0.31375    1.000
    H564     H        0.73578    0.97277    0.29215    1.000
    C565     C        0.66403    0.03554    0.30429    1.000
    H566     H        0.65799    0.04698    0.27549    1.000
    C567     C        0.91531    0.82617    0.40642    1.000
    C568     C        0.80518    0.95596    0.39325    1.000
    H569     H        0.79491    0.99707    0.40795    1.000
    C570     C        0.85268    0.92039    0.40584    1.000
    H571     H        0.87680    0.93586    0.42975    1.000
    C572     C        0.86842    0.86576    0.38851    1.000
    C573     C        0.83622    0.84952    0.35644    1.000
    H574     H        0.84699    0.80831    0.34199    1.000
    C575     C        0.78837    0.88605    0.34334    1.000
    H576     H        0.76367    0.87205    0.31900    1.000
    C577     C        0.77139    0.93914    0.36231    1.000
    C578     C        0.59996    0.22881    0.22580    1.000
    C579     C        0.65428    0.22804    0.20112    1.000
    C580     C        0.69466    0.27710    0.20045    1.000
    H581     H        0.68761    0.31557    0.21820    1.000
    C582     C        0.74350    0.27844    0.17586    1.000
    H583     H        0.77314    0.31742    0.17623    1.000
    C584     C        0.75308    0.23109    0.15058    1.000
    C585     C        0.71401    0.18088    0.15215    1.000
    H586     H        0.71966    0.14354    0.13323    1.000
    C587     C        0.66550    0.17930    0.17714    1.000
    H588     H        0.63584    0.14045    0.17696    1.000
    C589     C        0.80101    0.23568    0.12138    1.000
    C590     C        0.83216    0.18424    0.10853    1.000
    H591     H        0.82466    0.14069    0.12128    1.000
    C592     C        0.87370    0.18839    0.07926    1.000
    H593     H        0.89732    0.14810    0.07051    1.000
    C594     C        0.88507    0.24415    0.06193    1.000
    C595     C        0.85501    0.29564    0.07548    1.000
    H596     H        0.86323    0.33969    0.06356    1.000
    C597     C        0.81416    0.29160    0.10481    1.000
    H598     H        0.79196    0.33248    0.11390    1.000
    C599     C        0.93008    0.25042    0.03129    1.000
    C600     C        0.41463    0.11787    0.32232    1.000
    C601     C        0.36477    0.07455    0.33449    1.000
    C602     C        0.34482    0.07395    0.37128    1.000
    H603     H        0.36441    0.10506    0.39094    1.000
    C604     C        0.30024    0.03326    0.38379    1.000
    H605     H        0.28934    0.03581    0.41265    1.000
    C606     C        0.27161    0.99094    0.36014    1.000
    C607     C        0.29207    0.99155    0.32290    1.000
    H608     H        0.27315    0.96104    0.30272    1.000
    C609     C        0.33786    0.03194    0.31048    1.000
    H610     H        0.35209    0.02952    0.28192    1.000
    C611     C        0.22176    0.94749    0.37445    1.000
    C612     C        0.19862    0.95148    0.41096    1.000
    H613     H        0.21421    0.98537    0.42999    1.000
    C614     C        0.15372    0.91190    0.42446    1.000
    H615     H        0.13849    0.91741    0.45265    1.000
    C616     C        0.12843    0.86625    0.40240    1.000
    C617     C        0.15008    0.86199    0.36582    1.000
    H618     H        0.13087    0.82881    0.34729    1.000
    C619     C        0.19590    0.90118    0.35230    1.000
    H620     H        0.21053    0.89435    0.32422    1.000
    C621     C        0.07840    0.82554    0.41712    1.000
    C622     C        0.45939    0.06482    0.21555    1.000
    C623     C        0.63837    0.27141    0.49383    1.000
    In624    In       0.49730    0.78379    0.84559    1.000
    In625    In       0.49954    0.84312    0.76137    1.000
    In626    In       0.01717    0.19139    0.97782    1.000
    O627     O        0.05726    0.69634    0.52128    1.000
    O628     O        0.04563    0.79675    0.51710    1.000
    O629     O        0.43164    0.82005    0.72916    1.000
    O630     O        0.41426    0.72248    0.74233    1.000
    O631     O        0.43697    0.85135    0.84550    1.000
    O632     O        0.43983    0.89110    0.78850    1.000
    O633     O        0.06573    0.22092    0.89022    1.000
    O634     O        0.06779    0.15767    0.93850    1.000
    O635     O        0.56424    0.84524    0.84565    1.000
    O636     O        0.56711    0.88394    0.78873    1.000
    O637     O        0.93853    0.22134    0.89870    1.000
    O638     O        0.94808    0.15976    0.94776    1.000
    O639     O        0.03855    0.11463    0.00505    1.000
    O640     O        0.49888    0.91278    0.72786    1.000
    O641     O        0.58984    0.95535    0.70321    1.000
    O642     O        0.48348    0.77331    0.79277    1.000
    O643     O        0.49318    0.79404    0.89980    1.000
    N644     N        0.33774    0.78750    0.01015    1.000
    C645     C        0.41899    0.88989    0.82129    1.000
    C646     C        0.37209    0.93577    0.83120    1.000
    C647     C        0.36333    0.95277    0.86804    1.000
    H648     H        0.39083    0.93310    0.88956    1.000
    C649     C        0.31890    0.99501    0.87764    1.000
    H650     H        0.31340    0.00661    0.90645    1.000
    C651     C        0.28143    0.02144    0.85069    1.000
    C652     C        0.29197    0.00673    0.81351    1.000
    H653     H        0.26436    0.02649    0.79198    1.000
    C654     C        0.33662    0.96421    0.80388    1.000
    H655     H        0.34230    0.95261    0.77508    1.000
    C656     C        0.08520    0.17304    0.90627    1.000
    C657     C        0.19534    0.04336    0.89310    1.000
    H658     H        0.20571    0.00229    0.90788    1.000
    C659     C        0.14759    0.07871    0.90563    1.000
    H660     H        0.12335    0.06321    0.92950    1.000
    C661     C        0.13189    0.13329    0.88836    1.000
    C662     C        0.16411    0.14960    0.85628    1.000
    H663     H        0.15322    0.19082    0.84176    1.000
    C664     C        0.21215    0.11324    0.84322    1.000
    H665     H        0.23696    0.12732    0.81896    1.000
    C666     C        0.22923    0.06020    0.86217    1.000
    C667     C        0.40038    0.77181    0.72586    1.000
    C668     C        0.34588    0.77254    0.70142    1.000
    C669     C        0.30566    0.72343    0.70078    1.000
    H670     H        0.31278    0.68496    0.71854    1.000
    C671     C        0.25679    0.72197    0.67622    1.000
    H672     H        0.22731    0.68289    0.67660    1.000
    C673     C        0.24712    0.76931    0.65095    1.000
    C674     C        0.28610    0.81958    0.65246    1.000
    H675     H        0.28046    0.85679    0.63344    1.000
    C676     C        0.33450    0.82136    0.67748    1.000
    H677     H        0.36401    0.86030    0.67734    1.000
    C678     C        0.19901    0.76463    0.62186    1.000
    C679     C        0.16787    0.81609    0.60901    1.000
    H680     H        0.17547    0.85970    0.62173    1.000
    C681     C        0.12620    0.81195    0.57979    1.000
    H682     H        0.10271    0.85220    0.57100    1.000
    C683     C        0.11477    0.75627    0.56249    1.000
    C684     C        0.14473    0.70469    0.57616    1.000
    H685     H        0.13657    0.66061    0.56422    1.000
    C686     C        0.18567    0.70867    0.60543    1.000
    H687     H        0.20776    0.66777    0.61454    1.000
    C688     C        0.07008    0.74988    0.53162    1.000
    C689     C        0.58656    0.88225    0.82199    1.000
    C690     C        0.63618    0.92577    0.83414    1.000
    C691     C        0.65576    0.92679    0.87099    1.000
    H692     H        0.63592    0.89593    0.89072    1.000
    C693     C        0.70021    0.96763    0.88348    1.000
    H694     H        0.71075    0.96530    0.91241    1.000
    C695     C        0.72898    0.00976    0.85981    1.000
    C696     C        0.70879    0.00883    0.82248    1.000
    H697     H        0.72771    0.03932    0.80230    1.000
    C698     C        0.66323    0.96811    0.81004    1.000
    H699     H        0.64920    0.96994    0.78142    1.000
    C700     C        0.77861    0.05336    0.87424    1.000
    C701     C        0.80149    0.04933    0.91080    1.000
    H702     H        0.78598    0.01524    0.92974    1.000
    C703     C        0.84624    0.08883    0.92452    1.000
    H704     H        0.86120    0.08331    0.95276    1.000
    C705     C        0.87184    0.13443    0.90251    1.000
    C706     C        0.85028    0.13900    0.86598    1.000
    H707     H        0.86952    0.17249    0.84766    1.000
    C708     C        0.80451    0.09989    0.85223    1.000
    H709     H        0.79010    0.10684    0.82412    1.000
    C710     C        0.92225    0.17450    0.91727    1.000
    C711     C        0.54446    0.93414    0.71556    1.000
    C712     C        0.35786    0.72880    0.99636    1.000
    C713     C        0.92187    0.92197    0.49976    1.000
    C714     C        0.07779    0.07743    0.99964    1.000
    C715     C        0.57760    0.42216    0.24969    1.000
    C716     C        0.42197    0.57753    0.74979    1.000
    H717     H        0.24068    0.49557    0.58826    1.000
    H718     H        0.21704    0.66756    0.46440    1.000
    H719     H        0.20513    0.70491    0.50476    1.000
    H720     H        0.30781    0.64044    0.48433    1.000
    H721     H        0.26956    0.59528    0.51858    1.000
    H722     H        0.29091    0.67221    0.52885    1.000
    H723     H        0.83449    0.50659    0.09418    1.000
    H724     H        0.78836    0.29183    0.00150    1.000
    H725     H        0.81823    0.36280    0.00070    1.000
    H726     H        0.69765    0.32270    0.02020    1.000
    H727     H        0.69898    0.38506    0.98811    1.000
    H728     H        0.73664    0.39166    0.03210    1.000
    H729     H        0.03638    0.70181    0.34138    1.000
    H730     H        0.84205    0.72112    0.21432    1.000
    H731     H        0.79887    0.70813    0.25240    1.000
    H732     H        0.88708    0.80311    0.23763    1.000
    H733     H        0.89095    0.76951    0.28296    1.000
    H734     H        0.82140    0.80370    0.26724    1.000
    H735     H        0.04498    0.30481    0.84157    1.000
    H736     H        0.20722    0.29241    0.75903    1.000
    H737     H        0.13752    0.31685    0.74574    1.000
    H738     H        0.17715    0.19689    0.77093    1.000
    H739     H        0.11862    0.20054    0.73623    1.000
    H740     H        0.10783    0.23712    0.78028    1.000
    H741     H        0.33324    0.99393    0.15573    1.000
    H742     H        0.31529    0.13504    0.26508    1.000
    H743     H        0.27058    0.18500    0.28827    1.000
    H744     H        0.22384    0.09334    0.25279    1.000
    H745     H        0.23272    0.14416    0.21439    1.000
    H746     H        0.18720    0.16629    0.25347    1.000
    H747     H        0.74108    0.00446    0.66169    1.000
    H748     H        0.67981    0.85097    0.74405    1.000
    H749     H        0.71350    0.85105    0.78618    1.000
    H750     H        0.76302    0.87986    0.71441    1.000
    H751     H        0.80845    0.82713    0.74043    1.000
    H752     H        0.78994    0.90000    0.75971    1.000
    H753     H        0.54554    0.19580    0.40813    1.000
    H754     H        0.63806    0.21286    0.53795    1.000
    H755     H        0.70620    0.21984    0.51670    1.000
    H756     H        0.58937    0.27822    0.49911    1.000
    H757     H        0.64560    0.26715    0.46368    1.000
    H758     H        0.66349    0.31161    0.50394    1.000
    H759     H        0.53549    0.79806    0.90843    1.000
    H760     H        0.30538    0.80577    0.99241    1.000
    H761     H        0.37437    0.81707    0.01179    1.000
    H762     H        0.34745    0.72428    0.96655    1.000
    H763     H        0.33445    0.69172    0.01124    1.000
    H764     H        0.40735    0.72327    0.00045    1.000
    H765     H        0.64980    0.17908    0.49638    1.000
    H766     H        0.77796    0.33686    0.96394    1.000
    H767     H        0.18069    0.27492    0.71633    1.000
    H768     H        0.87224    0.68478    0.25142    1.000
    H769     H        0.18149    0.63212    0.50002    1.000
    H770     H        0.29864    0.20314    0.24593    1.000
    H771     H        0.71976    0.78946    0.75833    1.000
    H772     H        0.31863    0.78268    0.03632    1.000
