# CIF file generated by openbabel 3.1.0, see https://openbabel.org
data_I
_chemical_name_common 'image0'
_cell_length_a 30.7464
_cell_length_b 15.6855
_cell_length_c 22.0714
_cell_angle_alpha 90
_cell_angle_beta 133.21
_cell_angle_gamma 90
_space_group_name_H-M_alt 'P 1'
_space_group_name_Hall 'P 1'
loop_
    _symmetry_equiv_pos_as_xyz
    x,y,z
loop_
    _atom_site_label
    _atom_site_type_symbol
    _atom_site_fract_x
    _atom_site_fract_y
    _atom_site_fract_z
    _atom_site_occupancy
    Ce1      Ce       0.33122    0.87107    0.48629    1.000
    Ce2      Ce       0.61060    0.86283    0.67213    1.000
    O1       O        0.25331    0.76580    0.37340    1.000
    O2       O        0.22420    0.65100    0.29440    1.000
    O3       O        0.44090    0.85490    0.56950    1.000
    O4       O        0.52017    0.78310    0.61250    1.000
    O5       O        0.63410    0.97400    0.61750    1.000
    O6       O        0.67460    0.09740    0.62710    1.000
    O7       O        0.62280    0.88350    0.79510    1.000
    O8       O        0.65760    0.95360    0.90840    1.000
    N1       N        0.36670    0.73260    0.46410    1.000
    N2       N        0.66200    0.00240    0.75760    1.000
    C1       C        0.32820    0.67450    0.40720    1.000
    C2       C        0.34610    0.59980    0.39590    1.000
    H1       H        0.31740    0.56010    0.35420    1.000
    C3       C        0.40650    0.58420    0.44680    1.000
    H2       H        0.42010    0.53270    0.44190    1.000
    C4       C        0.44680    0.64490    0.50470    1.000
    H3       H        0.48840    0.63640    0.53910    1.000
    C5       C        0.42550    0.71840    0.51200    1.000
    C6       C        0.26320    0.69890    0.35350    1.000
    C7       C        0.46540    0.79020    0.57000    1.000
    C8       C        0.68460    0.05550    0.73860    1.000
    C9       C        0.72550    0.11850    0.79280    1.000
    H4       H        0.74350    0.15310    0.77960    1.000
    C10      C        0.73940    0.12950    0.86720    1.000
    H5       H        0.76670    0.17230    0.90580    1.000
    C11      C        0.71230    0.07650    0.88330    1.000
    H6       H        0.71960    0.08440    0.93230    1.000
    C12      C        0.67520    0.01290    0.82910    1.000
    C13      C        0.66340    0.04160    0.65470    1.000
    C14      C        0.64950    0.94600    0.84550    1.000
    Ce3      Ce       0.83122    0.37107    0.48629    1.000
    Ce4      Ce       0.11060    0.36283    0.67213    1.000
    O9       O        0.75331    0.26580    0.37340    1.000
    O10      O        0.72420    0.15100    0.29440    1.000
    O11      O        0.94090    0.35490    0.56950    1.000
    O12      O        0.02017    0.28310    0.61250    1.000
    O13      O        0.13410    0.47400    0.61750    1.000
    O14      O        0.17460    0.59740    0.62710    1.000
    O15      O        0.12280    0.38350    0.79510    1.000
    O16      O        0.15760    0.45360    0.90840    1.000
    N3       N        0.86670    0.23260    0.46410    1.000
    N4       N        0.16200    0.50240    0.75760    1.000
    C15      C        0.82820    0.17450    0.40720    1.000
    C16      C        0.84610    0.09980    0.39590    1.000
    H7       H        0.81740    0.06010    0.35420    1.000
    C17      C        0.90650    0.08420    0.44680    1.000
    H8       H        0.92010    0.03270    0.44190    1.000
    C18      C        0.94680    0.14490    0.50470    1.000
    H9       H        0.98840    0.13640    0.53910    1.000
    C19      C        0.92550    0.21840    0.51200    1.000
    C20      C        0.76320    0.19890    0.35350    1.000
    C21      C        0.96540    0.29020    0.57000    1.000
    C22      C        0.18460    0.55550    0.73860    1.000
    C23      C        0.22550    0.61850    0.79280    1.000
    H10      H        0.24350    0.65310    0.77960    1.000
    C24      C        0.23940    0.62950    0.86720    1.000
    H11      H        0.26670    0.67230    0.90580    1.000
    C25      C        0.21230    0.57650    0.88330    1.000
    H12      H        0.21960    0.58440    0.93230    1.000
    C26      C        0.17520    0.51290    0.82910    1.000
    C27      C        0.16340    0.54160    0.65470    1.000
    C28      C        0.14950    0.44600    0.84550    1.000
    Ce5      Ce       0.66878    0.87107    0.01371    1.000
    Ce6      Ce       0.38940    0.86283    0.82787    1.000
    O17      O        0.74669    0.76580    0.12660    1.000
    O18      O        0.77580    0.65100    0.20560    1.000
    O19      O        0.55910    0.85490    0.93050    1.000
    O20      O        0.47983    0.78310    0.88750    1.000
    O21      O        0.36590    0.97400    0.88250    1.000
    O22      O        0.32540    0.09740    0.87290    1.000
    O23      O        0.37720    0.88350    0.70490    1.000
    O24      O        0.34240    0.95360    0.59160    1.000
    N5       N        0.63330    0.73260    0.03590    1.000
    N6       N        0.33800    0.00240    0.74240    1.000
    C29      C        0.67180    0.67450    0.09280    1.000
    C30      C        0.65390    0.59980    0.10410    1.000
    H13      H        0.68260    0.56010    0.14580    1.000
    C31      C        0.59350    0.58420    0.05320    1.000
    H14      H        0.57990    0.53270    0.05810    1.000
    C32      C        0.55320    0.64490    0.99530    1.000
    H15      H        0.51160    0.63640    0.96090    1.000
    C33      C        0.57450    0.71840    0.98800    1.000
    C34      C        0.73680    0.69890    0.14650    1.000
    C35      C        0.53460    0.79020    0.93000    1.000
    C36      C        0.31540    0.05550    0.76140    1.000
    C37      C        0.27450    0.11850    0.70720    1.000
    H16      H        0.25650    0.15310    0.72040    1.000
    C38      C        0.26060    0.12950    0.63280    1.000
    H17      H        0.23330    0.17230    0.59420    1.000
    C39      C        0.28770    0.07650    0.61670    1.000
    H18      H        0.28040    0.08440    0.56770    1.000
    C40      C        0.32480    0.01290    0.67090    1.000
    C41      C        0.33660    0.04160    0.84530    1.000
    C42      C        0.35050    0.94600    0.65450    1.000
    Ce7      Ce       0.16878    0.37107    0.01371    1.000
    Ce8      Ce       0.88940    0.36283    0.82787    1.000
    O25      O        0.24669    0.26580    0.12660    1.000
    O26      O        0.27580    0.15100    0.20560    1.000
    O27      O        0.05910    0.35490    0.93050    1.000
    O28      O        0.97983    0.28310    0.88750    1.000
    O29      O        0.86590    0.47400    0.88250    1.000
    O30      O        0.82540    0.59740    0.87290    1.000
    O31      O        0.87720    0.38350    0.70490    1.000
    O32      O        0.84240    0.45360    0.59160    1.000
    N7       N        0.13330    0.23260    0.03590    1.000
    N8       N        0.83800    0.50240    0.74240    1.000
    C43      C        0.17180    0.17450    0.09280    1.000
    C44      C        0.15390    0.09980    0.10410    1.000
    H19      H        0.18260    0.06010    0.14580    1.000
    C45      C        0.09350    0.08420    0.05320    1.000
    H20      H        0.07990    0.03270    0.05810    1.000
    C46      C        0.05320    0.14490    0.99530    1.000
    H21      H        0.01160    0.13640    0.96090    1.000
    C47      C        0.07450    0.21840    0.98800    1.000
    C48      C        0.23680    0.19890    0.14650    1.000
    C49      C        0.03460    0.29020    0.93000    1.000
    C50      C        0.81540    0.55550    0.76140    1.000
    C51      C        0.77450    0.61850    0.70720    1.000
    H22      H        0.75650    0.65310    0.72040    1.000
    C52      C        0.76060    0.62950    0.63280    1.000
    H23      H        0.73330    0.67230    0.59420    1.000
    C53      C        0.78770    0.57650    0.61670    1.000
    H24      H        0.78040    0.58440    0.56770    1.000
    C54      C        0.82480    0.51290    0.67090    1.000
    C55      C        0.83660    0.54160    0.84530    1.000
    C56      C        0.85050    0.44600    0.65450    1.000
    Ce9      Ce       0.66878    0.12893    0.51371    1.000
    Ce10     Ce       0.38940    0.13717    0.32787    1.000
    O33      O        0.74669    0.23420    0.62660    1.000
    O34      O        0.77580    0.34900    0.70560    1.000
    O35      O        0.55910    0.14510    0.43050    1.000
    O36      O        0.47983    0.21690    0.38750    1.000
    O37      O        0.36590    0.02600    0.38250    1.000
    O38      O        0.32540    0.90260    0.37290    1.000
    O39      O        0.37720    0.11650    0.20490    1.000
    O40      O        0.34240    0.04640    0.09160    1.000
    N9       N        0.63330    0.26740    0.53590    1.000
    N10      N        0.33800    0.99760    0.24240    1.000
    C57      C        0.67180    0.32550    0.59280    1.000
    C58      C        0.65390    0.40020    0.60410    1.000
    H25      H        0.68260    0.43990    0.64580    1.000
    C59      C        0.59350    0.41580    0.55320    1.000
    H26      H        0.57990    0.46730    0.55810    1.000
    C60      C        0.55320    0.35510    0.49530    1.000
    H27      H        0.51160    0.36360    0.46090    1.000
    C61      C        0.57450    0.28160    0.48800    1.000
    C62      C        0.73680    0.30110    0.64650    1.000
    C63      C        0.53460    0.20980    0.43000    1.000
    C64      C        0.31540    0.94450    0.26140    1.000
    C65      C        0.27450    0.88150    0.20720    1.000
    H28      H        0.25650    0.84690    0.22040    1.000
    C66      C        0.26060    0.87050    0.13280    1.000
    H29      H        0.23330    0.82770    0.09420    1.000
    C67      C        0.28770    0.92350    0.11670    1.000
    H30      H        0.28040    0.91560    0.06770    1.000
    C68      C        0.32480    0.98710    0.17090    1.000
    C69      C        0.33660    0.95840    0.34530    1.000
    C70      C        0.35050    0.05400    0.15450    1.000
    Ce11     Ce       0.16878    0.62893    0.51371    1.000
    Ce12     Ce       0.88940    0.63717    0.32787    1.000
    O41      O        0.24669    0.73420    0.62660    1.000
    O42      O        0.27580    0.84900    0.70560    1.000
    O43      O        0.05910    0.64510    0.43050    1.000
    O44      O        0.97983    0.71690    0.38750    1.000
    O45      O        0.86590    0.52600    0.38250    1.000
    O46      O        0.82540    0.40260    0.37290    1.000
    O47      O        0.87720    0.61650    0.20490    1.000
    O48      O        0.84240    0.54640    0.09160    1.000
    N11      N        0.13330    0.76740    0.53590    1.000
    N12      N        0.83800    0.49760    0.24240    1.000
    C71      C        0.17180    0.82550    0.59280    1.000
    C72      C        0.15390    0.90020    0.60410    1.000
    H31      H        0.18260    0.93990    0.64580    1.000
    C73      C        0.09350    0.91580    0.55320    1.000
    H32      H        0.07990    0.96730    0.55810    1.000
    C74      C        0.05320    0.85510    0.49530    1.000
    H33      H        0.01160    0.86360    0.46090    1.000
    C75      C        0.07450    0.78160    0.48800    1.000
    C76      C        0.23680    0.80110    0.64650    1.000
    C77      C        0.03460    0.70980    0.43000    1.000
    C78      C        0.81540    0.44450    0.26140    1.000
    C79      C        0.77450    0.38150    0.20720    1.000
    H34      H        0.75650    0.34690    0.22040    1.000
    C80      C        0.76060    0.37050    0.13280    1.000
    H35      H        0.73330    0.32770    0.09420    1.000
    C81      C        0.78770    0.42350    0.11670    1.000
    H36      H        0.78040    0.41560    0.06770    1.000
    C82      C        0.82480    0.48710    0.17090    1.000
    C83      C        0.83660    0.45840    0.34530    1.000
    C84      C        0.85050    0.55400    0.15450    1.000
    Ce13     Ce       0.33122    0.12893    0.98629    1.000
    Ce14     Ce       0.61060    0.13717    0.17213    1.000
    O49      O        0.25331    0.23420    0.87340    1.000
    O50      O        0.22420    0.34900    0.79440    1.000
    O51      O        0.44090    0.14510    0.06950    1.000
    O52      O        0.52017    0.21690    0.11250    1.000
    O53      O        0.63410    0.02600    0.11750    1.000
    O54      O        0.67460    0.90260    0.12710    1.000
    O55      O        0.62280    0.11650    0.29510    1.000
    O56      O        0.65760    0.04640    0.40840    1.000
    N13      N        0.36670    0.26740    0.96410    1.000
    N14      N        0.66200    0.99760    0.25760    1.000
    C85      C        0.32820    0.32550    0.90720    1.000
    C86      C        0.34610    0.40020    0.89590    1.000
    H37      H        0.31740    0.43990    0.85420    1.000
    C87      C        0.40650    0.41580    0.94680    1.000
    H38      H        0.42010    0.46730    0.94190    1.000
    C88      C        0.44680    0.35510    0.00470    1.000
    H39      H        0.48840    0.36360    0.03910    1.000
    C89      C        0.42550    0.28160    0.01200    1.000
    C90      C        0.26320    0.30110    0.85350    1.000
    C91      C        0.46540    0.20980    0.07000    1.000
    C92      C        0.68460    0.94450    0.23860    1.000
    C93      C        0.72550    0.88150    0.29280    1.000
    H40      H        0.74350    0.84690    0.27960    1.000
    C94      C        0.73940    0.87050    0.36720    1.000
    H41      H        0.76670    0.82770    0.40580    1.000
    C95      C        0.71230    0.92350    0.38330    1.000
    H42      H        0.71960    0.91560    0.43230    1.000
    C96      C        0.67520    0.98710    0.32910    1.000
    C97      C        0.66340    0.95840    0.15470    1.000
    C98      C        0.64950    0.05400    0.34550    1.000
    Ce15     Ce       0.83122    0.62893    0.98629    1.000
    Ce16     Ce       0.11060    0.63717    0.17213    1.000
    O57      O        0.75331    0.73420    0.87340    1.000
    O58      O        0.72420    0.84900    0.79440    1.000
    O59      O        0.94090    0.64510    0.06950    1.000
    O60      O        0.02017    0.71690    0.11250    1.000
    O61      O        0.13410    0.52600    0.11750    1.000
    O62      O        0.17460    0.40260    0.12710    1.000
    O63      O        0.12280    0.61650    0.29510    1.000
    O64      O        0.15760    0.54640    0.40840    1.000
    N15      N        0.86670    0.76740    0.96410    1.000
    N16      N        0.16200    0.49760    0.25760    1.000
    C99      C        0.82820    0.82550    0.90720    1.000
    C100     C        0.84610    0.90020    0.89590    1.000
    H43      H        0.81740    0.93990    0.85420    1.000
    C101     C        0.90650    0.91580    0.94680    1.000
    H44      H        0.92010    0.96730    0.94190    1.000
    C102     C        0.94680    0.85510    0.00470    1.000
    H45      H        0.98840    0.86360    0.03910    1.000
    C103     C        0.92550    0.78160    0.01200    1.000
    C104     C        0.76320    0.80110    0.85350    1.000
    C105     C        0.96540    0.70980    0.07000    1.000
    C106     C        0.18460    0.44450    0.23860    1.000
    C107     C        0.22550    0.38150    0.29280    1.000
    H46      H        0.24350    0.34690    0.27960    1.000
    C108     C        0.23940    0.37050    0.36720    1.000
    H47      H        0.26670    0.32770    0.40580    1.000
    C109     C        0.21230    0.42350    0.38330    1.000
    H48      H        0.21960    0.41560    0.43230    1.000
    C110     C        0.17520    0.48710    0.32910    1.000
    C111     C        0.16340    0.45840    0.15470    1.000
    C112     C        0.14950    0.55400    0.34550    1.000
