# CIF file generated by openbabel 3.1.0, see https://openbabel.org
data_I
_chemical_name_common 'ALUKAU_clean'
_cell_length_a 8.522
_cell_length_b 10.154
_cell_length_c 11.067
_cell_angle_alpha 64.726
_cell_angle_beta 71.738
_cell_angle_gamma 79.581
_space_group_name_H-M_alt 'P 1'
_space_group_name_Hall 'P 1'
loop_
    _symmetry_equiv_pos_as_xyz
    x,y,z
loop_
    _atom_site_label
    _atom_site_type_symbol
    _atom_site_fract_x
    _atom_site_fract_y
    _atom_site_fract_z
    _atom_site_occupancy
    Dy1      Dy       0.36783    0.06183    0.34349    1.000
    Dy2      Dy       0.63217    0.93817    0.65651    1.000
    H1       H        0.56500    0.72140    0.31510    1.000
    H2       H        0.49080    0.47170    0.72000    1.000
    H3       H        0.96070    0.14720    0.12030    1.000
    H4       H        0.77970    0.88260    0.01710    1.000
    H5       H        0.27400    0.43980    0.91690    1.000
    H6       H        0.86420    0.37810    0.23070    1.000
    H7       H        0.43500    0.27860    0.68490    1.000
    H8       H        0.50920    0.52830    0.28000    1.000
    H9       H        0.03930    0.85280    0.87970    1.000
    H10      H        0.22030    0.11740    0.98290    1.000
    H11      H        0.72600    0.56020    0.08310    1.000
    H12      H        0.13580    0.62190    0.76930    1.000
    C1       C        0.56370    0.74020    0.54890    1.000
    C2       C        0.53030    0.61620    0.52170    1.000
    C3       C        0.53820    0.63270    0.38950    1.000
    C4       C        0.49380    0.48310    0.63140    1.000
    C5       C        0.67520    0.04190    0.16610    1.000
    C6       C        0.84450    0.01990    0.08010    1.000
    C7       C        0.97670    0.08860    0.07140    1.000
    C8       C        0.86810    0.93010    0.00970    1.000
    C9       C        0.17510    0.26900    0.18020    1.000
    C10      C        0.08260    0.38900    0.08910    1.000
    C11      C        0.16310    0.46390    0.95050    1.000
    C12      C        0.91920    0.42650    0.13800    1.000
    C13      C        0.43630    0.25980    0.45110    1.000
    C14      C        0.46970    0.38380    0.47830    1.000
    C15      C        0.46180    0.36730    0.61050    1.000
    C16      C        0.50620    0.51690    0.36860    1.000
    C17      C        0.32480    0.95810    0.83390    1.000
    C18      C        0.15550    0.98010    0.91990    1.000
    C19      C        0.02330    0.91140    0.92860    1.000
    C20      C        0.13190    0.06990    0.99030    1.000
    C21      C        0.82490    0.73100    0.81980    1.000
    C22      C        0.91740    0.61100    0.91090    1.000
    C23      C        0.83690    0.53610    0.04950    1.000
    C24      C        0.08080    0.57350    0.86200    1.000
    O1       O        0.52700    0.86990    0.47560    1.000
    O2       O        0.62880    0.71120    0.64390    1.000
    O3       O        0.65470    0.12160    0.23300    1.000
    O4       O        0.55620    0.98180    0.17090    1.000
    O5       O        0.10320    0.19800    0.30660    1.000
    O6       O        0.32400    0.23810    0.13000    1.000
    O7       O        0.47300    0.13010    0.52440    1.000
    O8       O        0.37120    0.28880    0.35610    1.000
    O9       O        0.34530    0.87840    0.76700    1.000
    O10      O        0.44380    0.01820    0.82910    1.000
    O11      O        0.89680    0.80200    0.69340    1.000
    O12      O        0.67600    0.76190    0.87000    1.000
