# CIF file generated by openbabel 3.1.0, see https://openbabel.org
data_I
_chemical_name_common 'image0'
_cell_length_a 18.9542
_cell_length_b 19.697
_cell_length_c 12.0228
_cell_angle_alpha 90
_cell_angle_beta 90
_cell_angle_gamma 90
_space_group_name_H-M_alt 'P 1'
_space_group_name_Hall 'P 1'
loop_
    _symmetry_equiv_pos_as_xyz
    x,y,z
loop_
    _atom_site_label
    _atom_site_type_symbol
    _atom_site_fract_x
    _atom_site_fract_y
    _atom_site_fract_z
    _atom_site_occupancy
    Co1      Co       0.80589    0.16279    0.32238    1.000
    C1       C        0.72640    0.95660    0.52490    1.000
    C2       C        0.68840    0.98120    0.43430    1.000
    H1       H        0.64650    0.95910    0.41050    1.000
    C3       C        0.71240    0.03820    0.37970    1.000
    H2       H        0.68590    0.05490    0.31840    1.000
    C4       C        0.80720    0.04820    0.49580    1.000
    H3       H        0.84830    0.07200    0.51880    1.000
    C5       C        0.78750    0.99100    0.55470    1.000
    H4       H        0.81550    0.97540    0.61510    1.000
    C6       C        0.70330    0.89460    0.58960    1.000
    C7       C        0.43800    0.69060    0.59910    1.000
    H5       H        0.41430    0.64830    0.60500    1.000
    C8       C        0.50930    0.69250    0.57610    1.000
    H6       H        0.53360    0.65070    0.56660    1.000
    C9       C        0.69380    0.70090    0.20960    1.000
    H7       H        0.71810    0.66540    0.17220    1.000
    C10      C        0.62400    0.80060    0.20800    1.000
    H8       H        0.60040    0.83630    0.17000    1.000
    C11      C        0.69320    0.70280    0.32250    1.000
    H9       H        0.71850    0.66870    0.36170    1.000
    C12      C        0.62410    0.79790    0.32290    1.000
    H10      H        0.59840    0.83140    0.36260    1.000
    N1       N        0.77180    0.07140    0.40920    1.000
    H11      H        0.61750    0.75810    0.76120    1.000
    O1       O        0.66090    0.85470    0.54370    1.000
    O2       O        0.72930    0.88810    0.68440    1.000
    O3       O        0.29660    0.69550    0.65720    1.000
    O4       O        0.66250    0.80520    0.97710    1.000
    Co2      Co       0.69411    0.83721    0.82238    1.000
    C13      C        0.77360    0.04340    0.02490    1.000
    C14      C        0.81160    0.01880    0.93430    1.000
    H12      H        0.85350    0.04090    0.91050    1.000
    C15      C        0.78760    0.96180    0.87970    1.000
    H13      H        0.81410    0.94510    0.81840    1.000
    C16      C        0.69280    0.95180    0.99580    1.000
    H14      H        0.65170    0.92800    0.01880    1.000
    C17      C        0.71250    0.00900    0.05470    1.000
    H15      H        0.68450    0.02460    0.11510    1.000
    C18      C        0.79670    0.10540    0.08960    1.000
    C19      C        0.06200    0.30940    0.09910    1.000
    H16      H        0.08570    0.35170    0.10500    1.000
    C20      C        0.99070    0.30750    0.07610    1.000
    H17      H        0.96640    0.34930    0.06660    1.000
    C21      C        0.80620    0.29910    0.70960    1.000
    H18      H        0.78190    0.33460    0.67220    1.000
    C22      C        0.87600    0.19940    0.70800    1.000
    H19      H        0.89960    0.16370    0.67000    1.000
    C23      C        0.80680    0.29720    0.82250    1.000
    H20      H        0.78150    0.33130    0.86170    1.000
    C24      C        0.87590    0.20210    0.82290    1.000
    H21      H        0.90160    0.16860    0.86260    1.000
    N2       N        0.72820    0.92860    0.90920    1.000
    H22      H        0.88250    0.24190    0.26120    1.000
    O5       O        0.83910    0.14530    0.04370    1.000
    O6       O        0.77070    0.11190    0.18440    1.000
    O7       O        0.20340    0.30450    0.15720    1.000
    O8       O        0.83750    0.19480    0.47710    1.000
    Co3      Co       0.19411    0.66279    0.67762    1.000
    C25      C        0.27360    0.45660    0.47510    1.000
    C26      C        0.31160    0.48120    0.56570    1.000
    H23      H        0.35350    0.45910    0.58950    1.000
    C27      C        0.28760    0.53820    0.62030    1.000
    H24      H        0.31410    0.55490    0.68160    1.000
    C28      C        0.19280    0.54820    0.50420    1.000
    H25      H        0.15170    0.57200    0.48120    1.000
    C29      C        0.21250    0.49100    0.44530    1.000
    H26      H        0.18450    0.47540    0.38490    1.000
    C30      C        0.29670    0.39460    0.41040    1.000
    C31      C        0.56200    0.19060    0.40090    1.000
    H27      H        0.58570    0.14830    0.39500    1.000
    C32      C        0.49070    0.19250    0.42390    1.000
    H28      H        0.46640    0.15070    0.43340    1.000
    C33      C        0.30620    0.20090    0.79040    1.000
    H29      H        0.28190    0.16540    0.82780    1.000
    C34      C        0.37600    0.30060    0.79200    1.000
    H30      H        0.39960    0.33630    0.83000    1.000
    C35      C        0.30680    0.20280    0.67750    1.000
    H31      H        0.28150    0.16870    0.63830    1.000
    C36      C        0.37590    0.29790    0.67710    1.000
    H32      H        0.40160    0.33140    0.63740    1.000
    N3       N        0.22820    0.57140    0.59080    1.000
    H33      H        0.38250    0.25810    0.23880    1.000
    O9       O        0.33910    0.35470    0.45630    1.000
    O10      O        0.27070    0.38810    0.31560    1.000
    O11      O        0.70340    0.19550    0.34280    1.000
    O12      O        0.33750    0.30520    0.02290    1.000
    Co4      Co       0.30589    0.33721    0.17762    1.000
    C37      C        0.22640    0.54340    0.97510    1.000
    C38      C        0.18840    0.51880    0.06570    1.000
    H34      H        0.14650    0.54090    0.08950    1.000
    C39      C        0.21240    0.46180    0.12030    1.000
    H35      H        0.18590    0.44510    0.18160    1.000
    C40      C        0.30720    0.45180    0.00420    1.000
    H36      H        0.34830    0.42800    0.98120    1.000
    C41      C        0.28750    0.50900    0.94530    1.000
    H37      H        0.31550    0.52460    0.88490    1.000
    C42      C        0.20330    0.60540    0.91040    1.000
    C43      C        0.93800    0.80940    0.90090    1.000
    H38      H        0.91430    0.85170    0.89500    1.000
    C44      C        0.00930    0.80750    0.92390    1.000
    H39      H        0.03360    0.84930    0.93340    1.000
    C45      C        0.19380    0.79910    0.29040    1.000
    H40      H        0.21810    0.83460    0.32780    1.000
    C46      C        0.12400    0.69940    0.29200    1.000
    H41      H        0.10040    0.66370    0.33000    1.000
    C47      C        0.19320    0.79720    0.17750    1.000
    H42      H        0.21850    0.83130    0.13830    1.000
    C48      C        0.12410    0.70210    0.17710    1.000
    H43      H        0.09840    0.66860    0.13740    1.000
    N4       N        0.27180    0.42860    0.09080    1.000
    H44      H        0.11750    0.74190    0.73880    1.000
    O13      O        0.16090    0.64530    0.95630    1.000
    O14      O        0.22930    0.61190    0.81560    1.000
    O15      O        0.79660    0.80450    0.84280    1.000
    O16      O        0.16250    0.69480    0.52290    1.000
    Co5      Co       0.19411    0.83721    0.67762    1.000
    C49      C        0.27360    0.04340    0.47510    1.000
    C50      C        0.31160    0.01880    0.56570    1.000
    H45      H        0.35350    0.04090    0.58950    1.000
    C51      C        0.28760    0.96180    0.62030    1.000
    H46      H        0.31410    0.94510    0.68160    1.000
    C52      C        0.19280    0.95180    0.50420    1.000
    H47      H        0.15170    0.92800    0.48120    1.000
    C53      C        0.21250    0.00900    0.44530    1.000
    H48      H        0.18450    0.02460    0.38490    1.000
    C54      C        0.29670    0.10540    0.41040    1.000
    C55      C        0.56200    0.30940    0.40090    1.000
    H49      H        0.58570    0.35170    0.39500    1.000
    C56      C        0.49070    0.30750    0.42390    1.000
    H50      H        0.46640    0.34930    0.43340    1.000
    C57      C        0.30620    0.29910    0.79040    1.000
    H51      H        0.28190    0.33460    0.82780    1.000
    C58      C        0.37600    0.19940    0.79200    1.000
    H52      H        0.39960    0.16370    0.83000    1.000
    C59      C        0.30680    0.29720    0.67750    1.000
    H53      H        0.28150    0.33130    0.63830    1.000
    C60      C        0.37590    0.20210    0.67710    1.000
    H54      H        0.40160    0.16860    0.63740    1.000
    N5       N        0.22820    0.92860    0.59080    1.000
    H55      H        0.38250    0.24190    0.23880    1.000
    O17      O        0.33910    0.14530    0.45630    1.000
    O18      O        0.27070    0.11190    0.31560    1.000
    O19      O        0.70340    0.30450    0.34280    1.000
    O20      O        0.33750    0.19480    0.02290    1.000
    Co6      Co       0.30589    0.16279    0.17762    1.000
    C61      C        0.22640    0.95660    0.97510    1.000
    C62      C        0.18840    0.98120    0.06570    1.000
    H56      H        0.14650    0.95910    0.08950    1.000
    C63      C        0.21240    0.03820    0.12030    1.000
    H57      H        0.18590    0.05490    0.18160    1.000
    C64      C        0.30720    0.04820    0.00420    1.000
    H58      H        0.34830    0.07200    0.98120    1.000
    C65      C        0.28750    0.99100    0.94530    1.000
    H59      H        0.31550    0.97540    0.88490    1.000
    C66      C        0.20330    0.89460    0.91040    1.000
    C67      C        0.93800    0.69060    0.90090    1.000
    H60      H        0.91430    0.64830    0.89500    1.000
    C68      C        0.00930    0.69250    0.92390    1.000
    H61      H        0.03360    0.65070    0.93340    1.000
    C69      C        0.19380    0.70090    0.29040    1.000
    H62      H        0.21810    0.66540    0.32780    1.000
    C70      C        0.12400    0.80060    0.29200    1.000
    H63      H        0.10040    0.83630    0.33000    1.000
    C71      C        0.19320    0.70280    0.17750    1.000
    H64      H        0.21850    0.66870    0.13830    1.000
    C72      C        0.12410    0.79790    0.17710    1.000
    H65      H        0.09840    0.83140    0.13740    1.000
    N6       N        0.27180    0.07140    0.09080    1.000
    H66      H        0.11750    0.75810    0.73880    1.000
    O21      O        0.16090    0.85470    0.95630    1.000
    O22      O        0.22930    0.88810    0.81560    1.000
    O23      O        0.79660    0.69550    0.84280    1.000
    O24      O        0.16250    0.80520    0.52290    1.000
    Co7      Co       0.80589    0.33721    0.32238    1.000
    C73      C        0.72640    0.54340    0.52490    1.000
    C74      C        0.68840    0.51880    0.43430    1.000
    H67      H        0.64650    0.54090    0.41050    1.000
    C75      C        0.71240    0.46180    0.37970    1.000
    H68      H        0.68590    0.44510    0.31840    1.000
    C76      C        0.80720    0.45180    0.49580    1.000
    H69      H        0.84830    0.42800    0.51880    1.000
    C77      C        0.78750    0.50900    0.55470    1.000
    H70      H        0.81550    0.52460    0.61510    1.000
    C78      C        0.70330    0.60540    0.58960    1.000
    C79      C        0.43800    0.80940    0.59910    1.000
    H71      H        0.41430    0.85170    0.60500    1.000
    C80      C        0.50930    0.80750    0.57610    1.000
    H72      H        0.53360    0.84930    0.56660    1.000
    C81      C        0.69380    0.79910    0.20960    1.000
    H73      H        0.71810    0.83460    0.17220    1.000
    C82      C        0.62400    0.69940    0.20800    1.000
    H74      H        0.60040    0.66370    0.17000    1.000
    C83      C        0.69320    0.79720    0.32250    1.000
    H75      H        0.71850    0.83130    0.36170    1.000
    C84      C        0.62410    0.70210    0.32290    1.000
    H76      H        0.59840    0.66860    0.36260    1.000
    N7       N        0.77180    0.42860    0.40920    1.000
    H77      H        0.61750    0.74190    0.76120    1.000
    O25      O        0.66090    0.64530    0.54370    1.000
    O26      O        0.72930    0.61190    0.68440    1.000
    O27      O        0.29660    0.80450    0.65720    1.000
    O28      O        0.66250    0.69480    0.97710    1.000
    Co8      Co       0.69411    0.66279    0.82238    1.000
    C85      C        0.77360    0.45660    0.02490    1.000
    C86      C        0.81160    0.48120    0.93430    1.000
    H78      H        0.85350    0.45910    0.91050    1.000
    C87      C        0.78760    0.53820    0.87970    1.000
    H79      H        0.81410    0.55490    0.81840    1.000
    C88      C        0.69280    0.54820    0.99580    1.000
    H80      H        0.65170    0.57200    0.01880    1.000
    C89      C        0.71250    0.49100    0.05470    1.000
    H81      H        0.68450    0.47540    0.11510    1.000
    C90      C        0.79670    0.39460    0.08960    1.000
    C91      C        0.06200    0.19060    0.09910    1.000
    H82      H        0.08570    0.14830    0.10500    1.000
    C92      C        0.99070    0.19250    0.07610    1.000
    H83      H        0.96640    0.15070    0.06660    1.000
    C93      C        0.80620    0.20090    0.70960    1.000
    H84      H        0.78190    0.16540    0.67220    1.000
    C94      C        0.87600    0.30060    0.70800    1.000
    H85      H        0.89960    0.33630    0.67000    1.000
    C95      C        0.80680    0.20280    0.82250    1.000
    H86      H        0.78150    0.16870    0.86170    1.000
    C96      C        0.87590    0.29790    0.82290    1.000
    H87      H        0.90160    0.33140    0.86260    1.000
    N8       N        0.72820    0.57140    0.90920    1.000
    H88      H        0.88250    0.25810    0.26120    1.000
    O29      O        0.83910    0.35470    0.04370    1.000
    O30      O        0.77070    0.38810    0.18440    1.000
    O31      O        0.20340    0.19550    0.15720    1.000
    O32      O        0.83750    0.30520    0.47710    1.000
    Co9      Co       0.65833    0.75000    0.56412    1.000
    C97      C        0.40170    0.75000    0.61330    1.000
    C98      C        0.32510    0.75000    0.64630    1.000
    C99      C        0.65940    0.75000    0.14910    1.000
    N9       N        0.54550    0.75000    0.56650    1.000
    N10      N        0.65900    0.75000    0.38150    1.000
    O33      O        0.65930    0.75000    0.73940    1.000
    O34      O        0.77170    0.75000    0.57290    1.000
    H89      H        0.78850    0.75000    0.50830    1.000
    C100     C        0.66210    0.75000    0.02260    1.000
    Co10     Co       0.84167    0.25000    0.06412    1.000
    C101     C        0.09830    0.25000    0.11330    1.000
    C102     C        0.17490    0.25000    0.14630    1.000
    C103     C        0.84060    0.25000    0.64910    1.000
    N11      N        0.95450    0.25000    0.06650    1.000
    N12      N        0.84100    0.25000    0.88150    1.000
    O35      O        0.84070    0.25000    0.23940    1.000
    O36      O        0.72830    0.25000    0.07290    1.000
    H90      H        0.71150    0.25000    0.00830    1.000
    C104     C        0.83790    0.25000    0.52260    1.000
    Co11     Co       0.34167    0.25000    0.43588    1.000
    C105     C        0.59830    0.25000    0.38670    1.000
    C106     C        0.67490    0.25000    0.35370    1.000
    C107     C        0.34060    0.25000    0.85090    1.000
    N13      N        0.45450    0.25000    0.43350    1.000
    N14      N        0.34100    0.25000    0.61850    1.000
    O37      O        0.34070    0.25000    0.26060    1.000
    O38      O        0.22830    0.25000    0.42710    1.000
    H91      H        0.21150    0.25000    0.49170    1.000
    C108     C        0.33790    0.25000    0.97740    1.000
    Co12     Co       0.15833    0.75000    0.93588    1.000
    C109     C        0.90170    0.75000    0.88670    1.000
    C110     C        0.82510    0.75000    0.85370    1.000
    C111     C        0.15940    0.75000    0.35090    1.000
    N15      N        0.04550    0.75000    0.93350    1.000
    N16      N        0.15900    0.75000    0.11850    1.000
    O39      O        0.15930    0.75000    0.76060    1.000
    O40      O        0.27170    0.75000    0.92710    1.000
    H92      H        0.28850    0.75000    0.99170    1.000
    C112     C        0.16210    0.75000    0.47740    1.000
