# CIF file generated by openbabel 3.1.0, see https://openbabel.org
data_I
_chemical_name_common 'image0'
_cell_length_a 14.2241
_cell_length_b 13.4911
_cell_length_c 13.9998
_cell_angle_alpha 90
_cell_angle_beta 90.169
_cell_angle_gamma 90
_space_group_name_H-M_alt 'P 1'
_space_group_name_Hall 'P 1'
loop_
    _symmetry_equiv_pos_as_xyz
    x,y,z
loop_
    _atom_site_label
    _atom_site_type_symbol
    _atom_site_fract_x
    _atom_site_fract_y
    _atom_site_fract_z
    _atom_site_occupancy
    Zn1      Zn       0.97760    0.23490    0.12590    1.000
    Zn2      Zn       0.87500    0.63260    0.22140    1.000
    P1       P        0.97280    0.75310    0.39240    1.000
    P2       P        0.85720    0.11490    0.27720    1.000
    O1       O        0.92060    0.14160    0.36050    1.000
    O2       O        0.86720    0.19060    0.19690    1.000
    O3       O        0.93330    0.75780    0.49380    1.000
    O4       O        0.00470    0.37080    0.15970    1.000
    O5       O        0.05350    0.67720    0.38860    1.000
    O6       O        0.08810    0.49800    0.25110    1.000
    O7       O        0.89290    0.72330    0.32720    1.000
    O8       O        0.75510    0.11440    0.31070    1.000
    O9       O        0.11610    0.01070    0.25650    1.000
    O10      O        0.00950    0.85540    0.36590    1.000
    Zn3      Zn       0.47760    0.73490    0.12590    1.000
    Zn4      Zn       0.37500    0.13260    0.22140    1.000
    P3       P        0.47280    0.25310    0.39240    1.000
    P4       P        0.35720    0.61490    0.27720    1.000
    O11      O        0.42060    0.64160    0.36050    1.000
    O12      O        0.36720    0.69060    0.19690    1.000
    O13      O        0.43330    0.25780    0.49380    1.000
    O14      O        0.50470    0.87080    0.15970    1.000
    O15      O        0.55350    0.17720    0.38860    1.000
    O16      O        0.58810    0.99800    0.25110    1.000
    O17      O        0.39290    0.22330    0.32720    1.000
    O18      O        0.25510    0.61440    0.31070    1.000
    O19      O        0.61610    0.51070    0.25650    1.000
    O20      O        0.50950    0.35540    0.36590    1.000
    Zn5      Zn       0.02240    0.23490    0.37410    1.000
    Zn6      Zn       0.12500    0.63260    0.27860    1.000
    P5       P        0.02720    0.75310    0.10760    1.000
    P6       P        0.14280    0.11490    0.22280    1.000
    O21      O        0.07940    0.14160    0.13950    1.000
    O22      O        0.13280    0.19060    0.30310    1.000
    O23      O        0.06670    0.75780    0.00620    1.000
    O24      O        0.99530    0.37080    0.34030    1.000
    O25      O        0.94650    0.67720    0.11140    1.000
    O26      O        0.91190    0.49800    0.24890    1.000
    O27      O        0.10710    0.72330    0.17280    1.000
    O28      O        0.24490    0.11440    0.18930    1.000
    O29      O        0.88390    0.01070    0.24350    1.000
    O30      O        0.99050    0.85540    0.13410    1.000
    Zn7      Zn       0.52240    0.73490    0.37410    1.000
    Zn8      Zn       0.62500    0.13260    0.27860    1.000
    P7       P        0.52720    0.25310    0.10760    1.000
    P8       P        0.64280    0.61490    0.22280    1.000
    O31      O        0.57940    0.64160    0.13950    1.000
    O32      O        0.63280    0.69060    0.30310    1.000
    O33      O        0.56670    0.25780    0.00620    1.000
    O34      O        0.49530    0.87080    0.34030    1.000
    O35      O        0.44650    0.17720    0.11140    1.000
    O36      O        0.41190    0.99800    0.24890    1.000
    O37      O        0.60710    0.22330    0.17280    1.000
    O38      O        0.74490    0.61440    0.18930    1.000
    O39      O        0.38390    0.51070    0.24350    1.000
    O40      O        0.49050    0.35540    0.13410    1.000
    Zn9      Zn       0.02240    0.76510    0.87410    1.000
    Zn10     Zn       0.12500    0.36740    0.77860    1.000
    P9       P        0.02720    0.24690    0.60760    1.000
    P10      P        0.14280    0.88510    0.72280    1.000
    O41      O        0.07940    0.85840    0.63950    1.000
    O42      O        0.13280    0.80940    0.80310    1.000
    O43      O        0.06670    0.24220    0.50620    1.000
    O44      O        0.99530    0.62920    0.84030    1.000
    O45      O        0.94650    0.32280    0.61140    1.000
    O46      O        0.91190    0.50200    0.74890    1.000
    O47      O        0.10710    0.27670    0.67280    1.000
    O48      O        0.24490    0.88560    0.68930    1.000
    O49      O        0.88390    0.98930    0.74350    1.000
    O50      O        0.99050    0.14460    0.63410    1.000
    Zn11     Zn       0.52240    0.26510    0.87410    1.000
    Zn12     Zn       0.62500    0.86740    0.77860    1.000
    P11      P        0.52720    0.74690    0.60760    1.000
    P12      P        0.64280    0.38510    0.72280    1.000
    O51      O        0.57940    0.35840    0.63950    1.000
    O52      O        0.63280    0.30940    0.80310    1.000
    O53      O        0.56670    0.74220    0.50620    1.000
    O54      O        0.49530    0.12920    0.84030    1.000
    O55      O        0.44650    0.82280    0.61140    1.000
    O56      O        0.41190    0.00200    0.74890    1.000
    O57      O        0.60710    0.77670    0.67280    1.000
    O58      O        0.74490    0.38560    0.68930    1.000
    O59      O        0.38390    0.48930    0.74350    1.000
    O60      O        0.49050    0.64460    0.63410    1.000
    Zn13     Zn       0.97760    0.76510    0.62590    1.000
    Zn14     Zn       0.87500    0.36740    0.72140    1.000
    P13      P        0.97280    0.24690    0.89240    1.000
    P14      P        0.85720    0.88510    0.77720    1.000
    O61      O        0.92060    0.85840    0.86050    1.000
    O62      O        0.86720    0.80940    0.69690    1.000
    O63      O        0.93330    0.24220    0.99380    1.000
    O64      O        0.00470    0.62920    0.65970    1.000
    O65      O        0.05350    0.32280    0.88860    1.000
    O66      O        0.08810    0.50200    0.75110    1.000
    O67      O        0.89290    0.27670    0.82720    1.000
    O68      O        0.75510    0.88560    0.81070    1.000
    O69      O        0.11610    0.98930    0.75650    1.000
    O70      O        0.00950    0.14460    0.86590    1.000
    Zn15     Zn       0.47760    0.26510    0.62590    1.000
    Zn16     Zn       0.37500    0.86740    0.72140    1.000
    P15      P        0.47280    0.74690    0.89240    1.000
    P16      P        0.35720    0.38510    0.77720    1.000
    O71      O        0.42060    0.35840    0.86050    1.000
    O72      O        0.36720    0.30940    0.69690    1.000
    O73      O        0.43330    0.74220    0.99380    1.000
    O74      O        0.50470    0.12920    0.65970    1.000
    O75      O        0.55350    0.82280    0.88860    1.000
    O76      O        0.58810    0.00200    0.75110    1.000
    O77      O        0.39290    0.77670    0.82720    1.000
    O78      O        0.25510    0.38560    0.81070    1.000
    O79      O        0.61610    0.48930    0.75650    1.000
    O80      O        0.50950    0.64460    0.86590    1.000
    Zn17     Zn       0.00000    0.93470    0.25000    1.000
    P17      P        0.00000    0.43350    0.25000    1.000
    Zn18     Zn       0.50000    0.43470    0.25000    1.000
    P18      P        0.50000    0.93350    0.25000    1.000
    Zn19     Zn       0.00000    0.06530    0.75000    1.000
    P19      P        0.00000    0.56650    0.75000    1.000
    Zn20     Zn       0.50000    0.56530    0.75000    1.000
    P20      P        0.50000    0.06650    0.75000    1.000
