# CIF file generated by openbabel 3.1.0, see https://openbabel.org
data_I
_chemical_name_common 'TAGCIP_clean'
_cell_length_a 5.2504
_cell_length_b 8.2896
_cell_length_c 16.4629
_cell_angle_alpha 90
_cell_angle_beta 93.912
_cell_angle_gamma 90
_space_group_name_H-M_alt 'P 1'
_space_group_name_Hall 'P 1'
loop_
    _symmetry_equiv_pos_as_xyz
    x,y,z
loop_
    _atom_site_label
    _atom_site_type_symbol
    _atom_site_fract_x
    _atom_site_fract_y
    _atom_site_fract_z
    _atom_site_occupancy
    Pu1      Pu       0.85179    0.15709    0.63277    1.000
    Pu2      Pu       0.64821    0.65709    0.86723    1.000
    Pu3      Pu       0.14821    0.84291    0.36723    1.000
    Pu4      Pu       0.35179    0.34291    0.13277    1.000
    P1       P        0.12352    0.82105    0.74333    1.000
    P2       P        0.34315    0.88924    0.57891    1.000
    P3       P        0.37648    0.32105    0.75667    1.000
    P4       P        0.15685    0.38924    0.92109    1.000
    P5       P        0.87648    0.17895    0.25667    1.000
    P6       P        0.65685    0.11076    0.42109    1.000
    P7       P        0.62352    0.67895    0.24333    1.000
    P8       P        0.84315    0.61076    0.07891    1.000
    H1       H        0.03920    0.70890    0.61620    1.000
    H2       H        0.31500    0.65540    0.65300    1.000
    H3       H        0.46080    0.20890    0.88380    1.000
    H4       H        0.18500    0.15540    0.84700    1.000
    H5       H        0.96080    0.29110    0.38380    1.000
    H6       H        0.68500    0.34460    0.34700    1.000
    H7       H        0.53920    0.79110    0.11620    1.000
    H8       H        0.81500    0.84460    0.15300    1.000
    C1       C        0.19890    0.74890    0.64480    1.000
    C2       C        0.30110    0.24890    0.85520    1.000
    C3       C        0.80110    0.25110    0.35520    1.000
    C4       C        0.69890    0.75110    0.14480    1.000
    O1       O        0.36370    0.82370    0.80051    1.000
    O2       O        0.17420    0.04060    0.57524    1.000
    O3       O        0.61480    0.92680    0.61183    1.000
    O4       O        0.01220    0.99060    0.73256    1.000
    O5       O        0.92570    0.70440    0.77423    1.000
    O6       O        0.34070    0.80790    0.49565    1.000
    O7       O        0.13630    0.32370    0.69949    1.000
    O8       O        0.32580    0.54060    0.92476    1.000
    O9       O        0.88520    0.42680    0.88817    1.000
    O10      O        0.48780    0.49060    0.76744    1.000
    O11      O        0.57430    0.20440    0.72577    1.000
    O12      O        0.15930    0.30790    0.00435    1.000
    O13      O        0.63630    0.17630    0.19949    1.000
    O14      O        0.82580    0.95940    0.42476    1.000
    O15      O        0.38520    0.07320    0.38817    1.000
    O16      O        0.98780    0.00940    0.26744    1.000
    O17      O        0.07430    0.29560    0.22577    1.000
    O18      O        0.65930    0.19210    0.50435    1.000
    O19      O        0.86370    0.67630    0.30051    1.000
    O20      O        0.67420    0.45940    0.07524    1.000
    O21      O        0.11480    0.57320    0.11183    1.000
    O22      O        0.51220    0.50940    0.23256    1.000
    O23      O        0.42570    0.79560    0.27423    1.000
    O24      O        0.84070    0.69210    0.99565    1.000
