# CIF file generated by openbabel 3.1.0, see https://openbabel.org
data_I
_chemical_name_common 'image0'
_cell_length_a 9.151
_cell_length_b 9.1671
_cell_length_c 9.3136
_cell_angle_alpha 77.93
_cell_angle_beta 86.22
_cell_angle_gamma 88.36
_space_group_name_H-M_alt 'P 1'
_space_group_name_Hall 'P 1'
loop_
    _symmetry_equiv_pos_as_xyz
    x,y,z
loop_
    _atom_site_label
    _atom_site_type_symbol
    _atom_site_fract_x
    _atom_site_fract_y
    _atom_site_fract_z
    _atom_site_occupancy
    P1       P        0.35335    0.83150    0.85617    1.000
    P2       P        0.18703    0.38304    0.89947    1.000
    P3       P        0.61876    0.37193    0.67852    1.000
    Al1      Al       0.43784    0.13294    0.91199    1.000
    Al2      Al       0.62582    0.39652    0.34237    1.000
    Al3      Al       0.84159    0.36783    0.92376    1.000
    F1       F        0.39170    0.98880    0.08020    1.000
    O1       O        0.20260    0.77840    0.92950    1.000
    O2       O        0.37490    0.77120    0.71360    1.000
    O3       O        0.47020    0.76580    0.96080    1.000
    O4       O        0.35440    0.00040    0.81130    1.000
    O5       O        0.26520    0.23560    0.92910    1.000
    O6       O        0.02680    0.35870    0.88180    1.000
    O7       O        0.20060    0.46100    0.02850    1.000
    O8       O        0.24570    0.48460    0.75790    1.000
    O9       O        0.50670    0.25590    0.74010    1.000
    O10      O        0.55080    0.52830    0.66900    1.000
    O11      O        0.75330    0.36000    0.76740    1.000
    O12      O        0.67240    0.35670    0.52380    1.000
    O13      O        0.38700    0.99100    0.09700    1.000
    P4       P        0.64665    0.16850    0.14383    1.000
    P5       P        0.81297    0.61696    0.10053    1.000
    P6       P        0.38124    0.62807    0.32148    1.000
    Al4      Al       0.56216    0.86706    0.08801    1.000
    Al5      Al       0.37418    0.60348    0.65763    1.000
    Al6      Al       0.15841    0.63217    0.07624    1.000
    F2       F        0.60830    0.01120    0.91980    1.000
    O14      O        0.79740    0.22160    0.07050    1.000
    O15      O        0.62510    0.22880    0.28640    1.000
    O16      O        0.52980    0.23420    0.03920    1.000
    O17      O        0.64560    0.99960    0.18870    1.000
    O18      O        0.73480    0.76440    0.07090    1.000
    O19      O        0.97320    0.64130    0.11820    1.000
    O20      O        0.79940    0.53900    0.97150    1.000
    O21      O        0.75430    0.51540    0.24210    1.000
    O22      O        0.49330    0.74410    0.25990    1.000
    O23      O        0.44920    0.47170    0.33100    1.000
    O24      O        0.24670    0.64000    0.23260    1.000
    O25      O        0.32760    0.64330    0.47620    1.000
    O26      O        0.61300    0.00900    0.90300    1.000
