# CIF file generated by openbabel 3.1.0, see https://openbabel.org
data_I
_chemical_name_common 'image0'
_cell_length_a 13.868
_cell_length_b 26.591
_cell_length_c 7.84
_cell_angle_alpha 90
_cell_angle_beta 90
_cell_angle_gamma 90
_space_group_name_H-M_alt 'P 1'
_space_group_name_Hall 'P 1'
loop_
    _symmetry_equiv_pos_as_xyz
    x,y,z
loop_
    _atom_site_label
    _atom_site_type_symbol
    _atom_site_fract_x
    _atom_site_fract_y
    _atom_site_fract_z
    _atom_site_occupancy
    Cd1      Cd       0.67515    0.50000    0.62130    1.000
    Cd2      Cd       0.75433    0.76473    0.61800    1.000
    Ni1      Ni       0.73270    0.63186    0.11080    1.000
    N1       N        0.70100    0.55640    0.83400    1.000
    N2       N        0.69400    0.55570    0.38300    1.000
    N3       N        0.83160    0.46720    0.60500    1.000
    N4       N        0.63900    0.44070    0.40500    1.000
    N5       N        0.50750    0.50320    0.59300    1.000
    N6       N        0.76400    0.71120    0.83800    1.000
    N7       N        0.76900    0.70750    0.39500    1.000
    N8       N        0.90800    0.79870    0.61800    1.000
    N9       N        0.72300    0.82400    0.39500    1.000
    N10      N        0.58400    0.75870    0.57500    1.000
    C1       C        0.71100    0.58410    0.94000    1.000
    C2       C        0.70900    0.58410    0.27400    1.000
    C3       C        0.88100    0.43440    0.56400    1.000
    C4       C        0.75400    0.68130    0.94300    1.000
    C5       C        0.75800    0.67880    0.29000    1.000
    C6       C        0.95800    0.82930    0.57300    1.000
    C7       C        0.53800    0.44600    0.35700    1.000
    C8       C        0.47700    0.46400    0.46500    1.000
    C9       C        0.36900    0.46720    0.43200    1.000
    C10      C        0.61800    0.82400    0.35700    1.000
    C11      C        0.55400    0.79500    0.45600    1.000
    C12      C        0.44900    0.79600    0.40200    1.000
    Cd3      Cd       0.32485    0.00000    0.37870    1.000
    Cd4      Cd       0.24567    0.26473    0.38200    1.000
    Ni2      Ni       0.26730    0.13186    0.88920    1.000
    N11      N        0.29900    0.05640    0.16600    1.000
    N12      N        0.30600    0.05570    0.61700    1.000
    N13      N        0.16840    0.96720    0.39500    1.000
    N14      N        0.36100    0.94070    0.59500    1.000
    N15      N        0.49250    0.00320    0.40700    1.000
    N16      N        0.23600    0.21120    0.16200    1.000
    N17      N        0.23100    0.20750    0.60500    1.000
    N18      N        0.09200    0.29870    0.38200    1.000
    N19      N        0.27700    0.32400    0.60500    1.000
    N20      N        0.41600    0.25870    0.42500    1.000
    C13      C        0.28900    0.08410    0.06000    1.000
    C14      C        0.29100    0.08410    0.72600    1.000
    C15      C        0.11900    0.93440    0.43600    1.000
    C16      C        0.24600    0.18130    0.05700    1.000
    C17      C        0.24200    0.17880    0.71000    1.000
    C18      C        0.04200    0.32930    0.42700    1.000
    C19      C        0.46200    0.94600    0.64300    1.000
    C20      C        0.52300    0.96400    0.53500    1.000
    C21      C        0.63100    0.96720    0.56800    1.000
    C22      C        0.38200    0.32400    0.64300    1.000
    C23      C        0.44600    0.29500    0.54400    1.000
    C24      C        0.55100    0.29600    0.59800    1.000
    Ni3      Ni       0.96210    0.38259    0.49450    1.000
    N21      N        0.13100    0.43390    0.66300    1.000
    N22      N        0.20810    0.83210    0.67500    1.000
    C25      C        0.06700    0.41500    0.59300    1.000
    C26      C        0.14600    0.85120    0.60500    1.000
    Ni4      Ni       0.03790    0.88259    0.50550    1.000
    N23      N        0.86900    0.93390    0.33700    1.000
    N24      N        0.79190    0.33210    0.32500    1.000
    C27      C        0.93300    0.91500    0.40700    1.000
    C28      C        0.85400    0.35120    0.39500    1.000
    Ni5      Ni       0.46210    0.38259    0.00550    1.000
    N25      N        0.63100    0.43390    0.83700    1.000
    N26      N        0.70810    0.83210    0.82500    1.000
    C29      C        0.56700    0.41500    0.90700    1.000
    C30      C        0.64600    0.85120    0.89500    1.000
    Ni6      Ni       0.53790    0.88259    0.99450    1.000
    N27      N        0.36900    0.93390    0.16300    1.000
    N28      N        0.29190    0.33210    0.17500    1.000
    C31      C        0.43300    0.91500    0.09300    1.000
    C32      C        0.35400    0.35120    0.10500    1.000
    Cd5      Cd       0.17515    0.50000    0.87870    1.000
    Cd6      Cd       0.25433    0.76473    0.88200    1.000
    Ni7      Ni       0.23270    0.63186    0.38920    1.000
    N29      N        0.20100    0.55640    0.66600    1.000
    N30      N        0.19400    0.55570    0.11700    1.000
    N31      N        0.33160    0.46720    0.89500    1.000
    N32      N        0.13900    0.44070    0.09500    1.000
    N33      N        0.00750    0.50320    0.90700    1.000
    N34      N        0.26400    0.71120    0.66200    1.000
    N35      N        0.26900    0.70750    0.10500    1.000
    N36      N        0.40800    0.79870    0.88200    1.000
    N37      N        0.22300    0.82400    0.10500    1.000
    N38      N        0.08400    0.75870    0.92500    1.000
    C33      C        0.21100    0.58410    0.56000    1.000
    C34      C        0.20900    0.58410    0.22600    1.000
    C35      C        0.38100    0.43440    0.93600    1.000
    C36      C        0.25400    0.68130    0.55700    1.000
    C37      C        0.25800    0.67880    0.21000    1.000
    C38      C        0.45800    0.82930    0.92700    1.000
    C39      C        0.03800    0.44600    0.14300    1.000
    C40      C        0.97700    0.46400    0.03500    1.000
    C41      C        0.86900    0.46720    0.06800    1.000
    C42      C        0.11800    0.82400    0.14300    1.000
    C43      C        0.05400    0.79500    0.04400    1.000
    C44      C        0.94900    0.79600    0.09800    1.000
    Cd7      Cd       0.82485    0.00000    0.12130    1.000
    Cd8      Cd       0.74567    0.26473    0.11800    1.000
    Ni8      Ni       0.76730    0.13186    0.61080    1.000
    N39      N        0.79900    0.05640    0.33400    1.000
    N40      N        0.80600    0.05570    0.88300    1.000
    N41      N        0.66840    0.96720    0.10500    1.000
    N42      N        0.86100    0.94070    0.90500    1.000
    N43      N        0.99250    0.00320    0.09300    1.000
    N44      N        0.73600    0.21120    0.33800    1.000
    N45      N        0.73100    0.20750    0.89500    1.000
    N46      N        0.59200    0.29870    0.11800    1.000
    N47      N        0.77700    0.32400    0.89500    1.000
    N48      N        0.91600    0.25870    0.07500    1.000
    C45      C        0.78900    0.08410    0.44000    1.000
    C46      C        0.79100    0.08410    0.77400    1.000
    C47      C        0.61900    0.93440    0.06400    1.000
    C48      C        0.74600    0.18130    0.44300    1.000
    C49      C        0.74200    0.17880    0.79000    1.000
    C50      C        0.54200    0.32930    0.07300    1.000
    C51      C        0.96200    0.94600    0.85700    1.000
    C52      C        0.02300    0.96400    0.96500    1.000
    C53      C        0.13100    0.96720    0.93200    1.000
    C54      C        0.88200    0.32400    0.85700    1.000
    C55      C        0.94600    0.29500    0.95600    1.000
    C56      C        0.05100    0.29600    0.90200    1.000
