# CIF file generated by openbabel 3.1.0, see https://openbabel.org
data_I
_chemical_name_common 'image0'
_cell_length_a 28.4774
_cell_length_b 9.4694
_cell_length_c 18.8921
_cell_angle_alpha 90
_cell_angle_beta 90
_cell_angle_gamma 90
_space_group_name_H-M_alt 'P 1'
_space_group_name_Hall 'P 1'
loop_
    _symmetry_equiv_pos_as_xyz
    x,y,z
loop_
    _atom_site_label
    _atom_site_type_symbol
    _atom_site_fract_x
    _atom_site_fract_y
    _atom_site_fract_z
    _atom_site_occupancy
    Cu1      Cu       0.06547    0.10780    0.92551    1.000
    P1       P        0.09650    0.04840    0.76000    1.000
    O1       O        0.95550    0.32760    0.52070    1.000
    O2       O        0.08450    0.01450    0.83910    1.000
    O3       O        0.11340    0.90970    0.72070    1.000
    O4       O        0.13500    0.16560    0.74960    1.000
    N1       N        0.13440    0.15270    0.95140    1.000
    C1       C        0.04290    0.11030    0.72420    1.000
    C2       C        0.04260    0.20020    0.66500    1.000
    C3       C        0.22570    0.23150    0.98860    1.000
    C4       C        0.18650    0.29150    0.02280    1.000
    C5       C        0.14150    0.24890    0.00090    1.000
    C6       C        0.17030    0.09200    0.91950    1.000
    C7       C        0.21780    0.13360    0.93620    1.000
    H1       H        0.07110    0.21300    0.63900    1.000
    H2       H        0.18990    0.38100    0.04500    1.000
    H3       H        0.11570    0.30500    0.01500    1.000
    H4       H        0.16570    0.00100    0.90100    1.000
    H5       H        0.24200    0.07600    0.92200    1.000
    Cu2      Cu       0.56547    0.60780    0.92551    1.000
    P2       P        0.59650    0.54840    0.76000    1.000
    O5       O        0.45550    0.82760    0.52070    1.000
    O6       O        0.58450    0.51450    0.83910    1.000
    O7       O        0.61340    0.40970    0.72070    1.000
    O8       O        0.63500    0.66560    0.74960    1.000
    N2       N        0.63440    0.65270    0.95140    1.000
    C8       C        0.54290    0.61030    0.72420    1.000
    C9       C        0.54260    0.70020    0.66500    1.000
    C10      C        0.72570    0.73150    0.98860    1.000
    C11      C        0.68650    0.79150    0.02280    1.000
    C12      C        0.64150    0.74890    0.00090    1.000
    C13      C        0.67030    0.59200    0.91950    1.000
    C14      C        0.71780    0.63360    0.93620    1.000
    H6       H        0.57110    0.71300    0.63900    1.000
    H7       H        0.68990    0.88100    0.04500    1.000
    H8       H        0.61570    0.80500    0.01500    1.000
    H9       H        0.66570    0.50100    0.90100    1.000
    H10      H        0.74200    0.57600    0.92200    1.000
    Cu3      Cu       0.93453    0.39220    0.42551    1.000
    P3       P        0.90350    0.45160    0.26000    1.000
    O9       O        0.04450    0.17240    0.02070    1.000
    O10      O        0.91550    0.48550    0.33910    1.000
    O11      O        0.88660    0.59030    0.22070    1.000
    O12      O        0.86500    0.33440    0.24960    1.000
    N3       N        0.86560    0.34730    0.45140    1.000
    C15      C        0.95710    0.38970    0.22420    1.000
    C16      C        0.95740    0.29980    0.16500    1.000
    C17      C        0.77430    0.26850    0.48860    1.000
    C18      C        0.81350    0.20850    0.52280    1.000
    C19      C        0.85850    0.25110    0.50090    1.000
    C20      C        0.82970    0.40800    0.41950    1.000
    C21      C        0.78220    0.36640    0.43620    1.000
    H11      H        0.92890    0.28700    0.13900    1.000
    H12      H        0.81010    0.11900    0.54500    1.000
    H13      H        0.88430    0.19500    0.51500    1.000
    H14      H        0.83430    0.49900    0.40100    1.000
    H15      H        0.75800    0.42400    0.42200    1.000
    Cu4      Cu       0.43453    0.89220    0.42551    1.000
    P4       P        0.40350    0.95160    0.26000    1.000
    O13      O        0.54450    0.67240    0.02070    1.000
    O14      O        0.41550    0.98550    0.33910    1.000
    O15      O        0.38660    0.09030    0.22070    1.000
    O16      O        0.36500    0.83440    0.24960    1.000
    N4       N        0.36560    0.84730    0.45140    1.000
    C22      C        0.45710    0.88970    0.22420    1.000
    C23      C        0.45740    0.79980    0.16500    1.000
    C24      C        0.27430    0.76850    0.48860    1.000
    C25      C        0.31350    0.70850    0.52280    1.000
    C26      C        0.35850    0.75110    0.50090    1.000
    C27      C        0.32970    0.90800    0.41950    1.000
    C28      C        0.28220    0.86640    0.43620    1.000
    H16      H        0.42890    0.78700    0.13900    1.000
    H17      H        0.31010    0.61900    0.54500    1.000
    H18      H        0.38430    0.69500    0.51500    1.000
    H19      H        0.33430    0.99900    0.40100    1.000
    H20      H        0.25800    0.92400    0.42200    1.000
    Cu5      Cu       0.93453    0.60780    0.57449    1.000
    P5       P        0.90350    0.54840    0.74000    1.000
    O17      O        0.04450    0.82760    0.97930    1.000
    O18      O        0.91550    0.51450    0.66090    1.000
    O19      O        0.88660    0.40970    0.77930    1.000
    O20      O        0.86500    0.66560    0.75040    1.000
    N5       N        0.86560    0.65270    0.54860    1.000
    C29      C        0.95710    0.61030    0.77580    1.000
    C30      C        0.95740    0.70020    0.83500    1.000
    C31      C        0.77430    0.73150    0.51140    1.000
    C32      C        0.81350    0.79150    0.47720    1.000
    C33      C        0.85850    0.74890    0.49910    1.000
    C34      C        0.82970    0.59200    0.58050    1.000
    C35      C        0.78220    0.63360    0.56380    1.000
    H21      H        0.92890    0.71300    0.86100    1.000
    H22      H        0.81010    0.88100    0.45500    1.000
    H23      H        0.88430    0.80500    0.48500    1.000
    H24      H        0.83430    0.50100    0.59900    1.000
    H25      H        0.75800    0.57600    0.57800    1.000
    Cu6      Cu       0.43453    0.10780    0.57449    1.000
    P6       P        0.40350    0.04840    0.74000    1.000
    O21      O        0.54450    0.32760    0.97930    1.000
    O22      O        0.41550    0.01450    0.66090    1.000
    O23      O        0.38660    0.90970    0.77930    1.000
    O24      O        0.36500    0.16560    0.75040    1.000
    N6       N        0.36560    0.15270    0.54860    1.000
    C36      C        0.45710    0.11030    0.77580    1.000
    C37      C        0.45740    0.20020    0.83500    1.000
    C38      C        0.27430    0.23150    0.51140    1.000
    C39      C        0.31350    0.29150    0.47720    1.000
    C40      C        0.35850    0.24890    0.49910    1.000
    C41      C        0.32970    0.09200    0.58050    1.000
    C42      C        0.28220    0.13360    0.56380    1.000
    H26      H        0.42890    0.21300    0.86100    1.000
    H27      H        0.31010    0.38100    0.45500    1.000
    H28      H        0.38430    0.30500    0.48500    1.000
    H29      H        0.33430    0.00100    0.59900    1.000
    H30      H        0.25800    0.07600    0.57800    1.000
    Cu7      Cu       0.06547    0.89220    0.07449    1.000
    P7       P        0.09650    0.95160    0.24000    1.000
    O25      O        0.95550    0.67240    0.47930    1.000
    O26      O        0.08450    0.98550    0.16090    1.000
    O27      O        0.11340    0.09030    0.27930    1.000
    O28      O        0.13500    0.83440    0.25040    1.000
    N7       N        0.13440    0.84730    0.04860    1.000
    C43      C        0.04290    0.88970    0.27580    1.000
    C44      C        0.04260    0.79980    0.33500    1.000
    C45      C        0.22570    0.76850    0.01140    1.000
    C46      C        0.18650    0.70850    0.97720    1.000
    C47      C        0.14150    0.75110    0.99910    1.000
    C48      C        0.17030    0.90800    0.08050    1.000
    C49      C        0.21780    0.86640    0.06380    1.000
    H31      H        0.07110    0.78700    0.36100    1.000
    H32      H        0.18990    0.61900    0.95500    1.000
    H33      H        0.11570    0.69500    0.98500    1.000
    H34      H        0.16570    0.99900    0.09900    1.000
    H35      H        0.24200    0.92400    0.07800    1.000
    Cu8      Cu       0.56547    0.39220    0.07449    1.000
    P8       P        0.59650    0.45160    0.24000    1.000
    O29      O        0.45550    0.17240    0.47930    1.000
    O30      O        0.58450    0.48550    0.16090    1.000
    O31      O        0.61340    0.59030    0.27930    1.000
    O32      O        0.63500    0.33440    0.25040    1.000
    N8       N        0.63440    0.34730    0.04860    1.000
    C50      C        0.54290    0.38970    0.27580    1.000
    C51      C        0.54260    0.29980    0.33500    1.000
    C52      C        0.72570    0.26850    0.01140    1.000
    C53      C        0.68650    0.20850    0.97720    1.000
    C54      C        0.64150    0.25110    0.99910    1.000
    C55      C        0.67030    0.40800    0.08050    1.000
    C56      C        0.71780    0.36640    0.06380    1.000
    H36      H        0.57110    0.28700    0.36100    1.000
    H37      H        0.68990    0.11900    0.95500    1.000
    H38      H        0.61570    0.19500    0.98500    1.000
    H39      H        0.66570    0.49900    0.09900    1.000
    H40      H        0.74200    0.42400    0.07800    1.000
    Cu9      Cu       0.93453    0.89220    0.07449    1.000
    P9       P        0.90350    0.95160    0.24000    1.000
    O33      O        0.04450    0.67240    0.47930    1.000
    O34      O        0.91550    0.98550    0.16090    1.000
    O35      O        0.88660    0.09030    0.27930    1.000
    O36      O        0.86500    0.83440    0.25040    1.000
    N9       N        0.86560    0.84730    0.04860    1.000
    C57      C        0.95710    0.88970    0.27580    1.000
    C58      C        0.95740    0.79980    0.33500    1.000
    C59      C        0.77430    0.76850    0.01140    1.000
    C60      C        0.81350    0.70850    0.97720    1.000
    C61      C        0.85850    0.75110    0.99910    1.000
    C62      C        0.82970    0.90800    0.08050    1.000
    C63      C        0.78220    0.86640    0.06380    1.000
    H41      H        0.92890    0.78700    0.36100    1.000
    H42      H        0.81010    0.61900    0.95500    1.000
    H43      H        0.88430    0.69500    0.98500    1.000
    H44      H        0.83430    0.99900    0.09900    1.000
    H45      H        0.75800    0.92400    0.07800    1.000
    Cu10     Cu       0.43453    0.39220    0.07449    1.000
    P10      P        0.40350    0.45160    0.24000    1.000
    O37      O        0.54450    0.17240    0.47930    1.000
    O38      O        0.41550    0.48550    0.16090    1.000
    O39      O        0.38660    0.59030    0.27930    1.000
    O40      O        0.36500    0.33440    0.25040    1.000
    N10      N        0.36560    0.34730    0.04860    1.000
    C64      C        0.45710    0.38970    0.27580    1.000
    C65      C        0.45740    0.29980    0.33500    1.000
    C66      C        0.27430    0.26850    0.01140    1.000
    C67      C        0.31350    0.20850    0.97720    1.000
    C68      C        0.35850    0.25110    0.99910    1.000
    C69      C        0.32970    0.40800    0.08050    1.000
    C70      C        0.28220    0.36640    0.06380    1.000
    H46      H        0.42890    0.28700    0.36100    1.000
    H47      H        0.31010    0.11900    0.95500    1.000
    H48      H        0.38430    0.19500    0.98500    1.000
    H49      H        0.33430    0.49900    0.09900    1.000
    H50      H        0.25800    0.42400    0.07800    1.000
    Cu11     Cu       0.06547    0.60780    0.57449    1.000
    P11      P        0.09650    0.54840    0.74000    1.000
    O41      O        0.95550    0.82760    0.97930    1.000
    O42      O        0.08450    0.51450    0.66090    1.000
    O43      O        0.11340    0.40970    0.77930    1.000
    O44      O        0.13500    0.66560    0.75040    1.000
    N11      N        0.13440    0.65270    0.54860    1.000
    C71      C        0.04290    0.61030    0.77580    1.000
    C72      C        0.04260    0.70020    0.83500    1.000
    C73      C        0.22570    0.73150    0.51140    1.000
    C74      C        0.18650    0.79150    0.47720    1.000
    C75      C        0.14150    0.74890    0.49910    1.000
    C76      C        0.17030    0.59200    0.58050    1.000
    C77      C        0.21780    0.63360    0.56380    1.000
    H51      H        0.07110    0.71300    0.86100    1.000
    H52      H        0.18990    0.88100    0.45500    1.000
    H53      H        0.11570    0.80500    0.48500    1.000
    H54      H        0.16570    0.50100    0.59900    1.000
    H55      H        0.24200    0.57600    0.57800    1.000
    Cu12     Cu       0.56547    0.10780    0.57449    1.000
    P12      P        0.59650    0.04840    0.74000    1.000
    O45      O        0.45550    0.32760    0.97930    1.000
    O46      O        0.58450    0.01450    0.66090    1.000
    O47      O        0.61340    0.90970    0.77930    1.000
    O48      O        0.63500    0.16560    0.75040    1.000
    N12      N        0.63440    0.15270    0.54860    1.000
    C78      C        0.54290    0.11030    0.77580    1.000
    C79      C        0.54260    0.20020    0.83500    1.000
    C80      C        0.72570    0.23150    0.51140    1.000
    C81      C        0.68650    0.29150    0.47720    1.000
    C82      C        0.64150    0.24890    0.49910    1.000
    C83      C        0.67030    0.09200    0.58050    1.000
    C84      C        0.71780    0.13360    0.56380    1.000
    H56      H        0.57110    0.21300    0.86100    1.000
    H57      H        0.68990    0.38100    0.45500    1.000
    H58      H        0.61570    0.30500    0.48500    1.000
    H59      H        0.66570    0.00100    0.59900    1.000
    H60      H        0.74200    0.07600    0.57800    1.000
    Cu13     Cu       0.06547    0.39220    0.42551    1.000
    P13      P        0.09650    0.45160    0.26000    1.000
    O49      O        0.95550    0.17240    0.02070    1.000
    O50      O        0.08450    0.48550    0.33910    1.000
    O51      O        0.11340    0.59030    0.22070    1.000
    O52      O        0.13500    0.33440    0.24960    1.000
    N13      N        0.13440    0.34730    0.45140    1.000
    C85      C        0.04290    0.38970    0.22420    1.000
    C86      C        0.04260    0.29980    0.16500    1.000
    C87      C        0.22570    0.26850    0.48860    1.000
    C88      C        0.18650    0.20850    0.52280    1.000
    C89      C        0.14150    0.25110    0.50090    1.000
    C90      C        0.17030    0.40800    0.41950    1.000
    C91      C        0.21780    0.36640    0.43620    1.000
    H61      H        0.07110    0.28700    0.13900    1.000
    H62      H        0.18990    0.11900    0.54500    1.000
    H63      H        0.11570    0.19500    0.51500    1.000
    H64      H        0.16570    0.49900    0.40100    1.000
    H65      H        0.24200    0.42400    0.42200    1.000
    Cu14     Cu       0.56547    0.89220    0.42551    1.000
    P14      P        0.59650    0.95160    0.26000    1.000
    O53      O        0.45550    0.67240    0.02070    1.000
    O54      O        0.58450    0.98550    0.33910    1.000
    O55      O        0.61340    0.09030    0.22070    1.000
    O56      O        0.63500    0.83440    0.24960    1.000
    N14      N        0.63440    0.84730    0.45140    1.000
    C92      C        0.54290    0.88970    0.22420    1.000
    C93      C        0.54260    0.79980    0.16500    1.000
    C94      C        0.72570    0.76850    0.48860    1.000
    C95      C        0.68650    0.70850    0.52280    1.000
    C96      C        0.64150    0.75110    0.50090    1.000
    C97      C        0.67030    0.90800    0.41950    1.000
    C98      C        0.71780    0.86640    0.43620    1.000
    H66      H        0.57110    0.78700    0.13900    1.000
    H67      H        0.68990    0.61900    0.54500    1.000
    H68      H        0.61570    0.69500    0.51500    1.000
    H69      H        0.66570    0.99900    0.40100    1.000
    H70      H        0.74200    0.92400    0.42200    1.000
    Cu15     Cu       0.93453    0.10780    0.92551    1.000
    P15      P        0.90350    0.04840    0.76000    1.000
    O57      O        0.04450    0.32760    0.52070    1.000
    O58      O        0.91550    0.01450    0.83910    1.000
    O59      O        0.88660    0.90970    0.72070    1.000
    O60      O        0.86500    0.16560    0.74960    1.000
    N15      N        0.86560    0.15270    0.95140    1.000
    C99      C        0.95710    0.11030    0.72420    1.000
    C100     C        0.95740    0.20020    0.66500    1.000
    C101     C        0.77430    0.23150    0.98860    1.000
    C102     C        0.81350    0.29150    0.02280    1.000
    C103     C        0.85850    0.24890    0.00090    1.000
    C104     C        0.82970    0.09200    0.91950    1.000
    C105     C        0.78220    0.13360    0.93620    1.000
    H71      H        0.92890    0.21300    0.63900    1.000
    H72      H        0.81010    0.38100    0.04500    1.000
    H73      H        0.88430    0.30500    0.01500    1.000
    H74      H        0.83430    0.00100    0.90100    1.000
    H75      H        0.75800    0.07600    0.92200    1.000
    Cu16     Cu       0.43453    0.60780    0.92551    1.000
    P16      P        0.40350    0.54840    0.76000    1.000
    O61      O        0.54450    0.82760    0.52070    1.000
    O62      O        0.41550    0.51450    0.83910    1.000
    O63      O        0.38660    0.40970    0.72070    1.000
    O64      O        0.36500    0.66560    0.74960    1.000
    N16      N        0.36560    0.65270    0.95140    1.000
    C106     C        0.45710    0.61030    0.72420    1.000
    C107     C        0.45740    0.70020    0.66500    1.000
    C108     C        0.27430    0.73150    0.98860    1.000
    C109     C        0.31350    0.79150    0.02280    1.000
    C110     C        0.35850    0.74890    0.00090    1.000
    C111     C        0.32970    0.59200    0.91950    1.000
    C112     C        0.28220    0.63360    0.93620    1.000
    H76      H        0.42890    0.71300    0.63900    1.000
    H77      H        0.31010    0.88100    0.04500    1.000
    H78      H        0.38430    0.80500    0.01500    1.000
    H79      H        0.33430    0.50100    0.90100    1.000
    H80      H        0.25800    0.57600    0.92200    1.000
    P17      P        0.00000    0.36150    0.55910    1.000
    O65      O        0.00000    0.51880    0.58290    1.000
    C113     C        0.00000    0.24410    0.63410    1.000
    C114     C        0.00000    0.06440    0.75240    1.000
    H81      H        0.00000    0.01900    0.79700    1.000
    P18      P        0.50000    0.86150    0.55910    1.000
    O66      O        0.50000    0.01880    0.58290    1.000
    C115     C        0.50000    0.74410    0.63410    1.000
    C116     C        0.50000    0.56440    0.75240    1.000
    H82      H        0.50000    0.51900    0.79700    1.000
    P19      P        0.00000    0.13850    0.05910    1.000
    O67      O        0.00000    0.98120    0.08290    1.000
    C117     C        0.00000    0.25590    0.13410    1.000
    C118     C        0.00000    0.43560    0.25240    1.000
    H83      H        0.00000    0.48100    0.29700    1.000
    P20      P        0.50000    0.63850    0.05910    1.000
    O68      O        0.50000    0.48120    0.08290    1.000
    C119     C        0.50000    0.75590    0.13410    1.000
    C120     C        0.50000    0.93560    0.25240    1.000
    H84      H        0.50000    0.98100    0.29700    1.000
    P21      P        0.00000    0.86150    0.94090    1.000
    O69      O        0.00000    0.01880    0.91710    1.000
    C121     C        0.00000    0.74410    0.86590    1.000
    C122     C        0.00000    0.56440    0.74760    1.000
    H85      H        0.00000    0.51900    0.70300    1.000
    P22      P        0.50000    0.36150    0.94090    1.000
    O70      O        0.50000    0.51880    0.91710    1.000
    C123     C        0.50000    0.24410    0.86590    1.000
    C124     C        0.50000    0.06440    0.74760    1.000
    H86      H        0.50000    0.01900    0.70300    1.000
    P23      P        0.00000    0.63850    0.44090    1.000
    O71      O        0.00000    0.48120    0.41710    1.000
    C125     C        0.00000    0.75590    0.36590    1.000
    C126     C        0.00000    0.93560    0.24760    1.000
    H87      H        0.00000    0.98100    0.20300    1.000
    P24      P        0.50000    0.13850    0.44090    1.000
    O72      O        0.50000    0.98120    0.41710    1.000
    C127     C        0.50000    0.25590    0.36590    1.000
    C128     C        0.50000    0.43560    0.24760    1.000
    H88      H        0.50000    0.48100    0.20300    1.000
