# CIF file generated by openbabel 3.1.0, see https://openbabel.org
data_I
_chemical_name_common 'image0'
_cell_length_a 24.3584
_cell_length_b 23.8485
_cell_length_c 17.1987
_cell_angle_alpha 90
_cell_angle_beta 93.465
_cell_angle_gamma 90
_space_group_name_H-M_alt 'P 1'
_space_group_name_Hall 'P 1'
loop_
    _symmetry_equiv_pos_as_xyz
    x,y,z
loop_
    _atom_site_label
    _atom_site_type_symbol
    _atom_site_fract_x
    _atom_site_fract_y
    _atom_site_fract_z
    _atom_site_occupancy
    Zn1      Zn       0.14194    0.06619    0.31002    1.000
    O1       O        0.24350    0.07150    0.20760    1.000
    O2       O        0.19690    0.12000    0.29920    1.000
    O3       O        0.06830    0.10180    0.29540    1.000
    O4       O        0.02860    0.93700    0.19000    1.000
    O5       O        0.14390    0.04630    0.42080    1.000
    O6       O        0.36450    0.85000    0.70600    1.000
    O7       O        0.41930    0.77640    0.71800    1.000
    O8       O        0.39250    0.63130    0.89410    1.000
    O9       O        0.33660    0.64250    0.99000    1.000
    O10      O        0.51640    0.15540    0.82700    1.000
    O11      O        0.48150    0.20530    0.92100    1.000
    O12      O        0.35130    0.03540    0.76400    1.000
    N1       N        0.23810    0.89060    0.83320    1.000
    N2       N        0.27990    0.86290    0.79960    1.000
    H1       H        0.29440    0.87910    0.75980    1.000
    N3       N        0.37720    0.80310    0.73180    1.000
    N4       N        0.35780    0.65680    0.93000    1.000
    N5       N        0.38070    0.16500    0.06410    1.000
    N6       N        0.41220    0.16390    0.00000    1.000
    H2       H        0.43580    0.19100    0.99240    1.000
    N7       N        0.48300    0.16390    0.87730    1.000
    C1       C        0.23040    0.11410    0.24690    1.000
    C2       C        0.27260    0.16040    0.24450    1.000
    C3       C        0.27760    0.20040    0.30330    1.000
    H3       H        0.25340    0.19970    0.34450    1.000
    C4       C        0.31810    0.24140    0.30170    1.000
    H4       H        0.32150    0.26870    0.34190    1.000
    C5       C        0.35360    0.24240    0.24140    1.000
    C6       C        0.34850    0.20240    0.18260    1.000
    C7       C        0.30810    0.16140    0.18410    1.000
    H5       H        0.30460    0.13410    0.14390    1.000
    C8       C        0.13840    0.99180    0.03770    1.000
    C9       C        0.09733    0.01855    0.90330    1.000
    H6       H        0.06660    0.03420    0.92680    1.000
    C10      C        0.09710    0.01415    0.82270    1.000
    H7       H        0.06620    0.02680    0.79110    1.000
    C11      C        0.14220    0.99120    0.78820    1.000
    C12      C        0.18737    0.97270    0.83430    1.000
    C13      C        0.18760    0.97706    0.91490    1.000
    H8       H        0.21850    0.96440    0.94650    1.000
    C14      C        0.03040    0.09850    0.24160    1.000
    C15      C        0.98640    0.13620    0.24600    1.000
    C16      C        0.94650    0.13795    0.18460    1.000
    H9       H        0.94770    0.11170    0.14320    1.000
    C17      C        0.90507    0.17802    0.18390    1.000
    H10      H        0.87780    0.17920    0.14200    1.000
    C18      C        0.40344    0.28361    0.24460    1.000
    C19      C        0.44330    0.28530    0.30590    1.000
    H11      H        0.44220    0.25910    0.34740    1.000
    C20      C        0.98470    0.17460    0.30660    1.000
    H12      H        0.01200    0.17350    0.34850    1.000
    C21      C        0.14280    0.04890    0.58030    1.000
    H13      H        0.14030    0.08330    0.55250    1.000
    C22      C        0.14322    0.04920    0.66020    1.000
    H14      H        0.14210    0.08400    0.68710    1.000
    C23      C        0.22688    0.93432    0.79680    1.000
    H15      H        0.24210    0.94290    0.74860    1.000
    C24      C        0.30160    0.81010    0.82380    1.000
    C25      C        0.34120    0.77790    0.78970    1.000
    C26      C        0.35960    0.72830    0.82460    1.000
    H16      H        0.38660    0.70630    0.80130    1.000
    C27      C        0.33830    0.71077    0.89380    1.000
    C28      C        0.29870    0.74292    0.92800    1.000
    H17      H        0.28420    0.73090    0.97520    1.000
    C29      C        0.28030    0.79255    0.89300    1.000
    H18      H        0.25330    0.81450    0.91640    1.000
    C30      C        0.37846    0.20784    0.11140    1.000
    H19      H        0.39600    0.24210    0.09970    1.000
    C31      C        0.40630    0.12050    0.94810    1.000
    C32      C        0.44060    0.11990    0.88600    1.000
    C33      C        0.43240    0.08070    0.82720    1.000
    H20      H        0.45590    0.08030    0.78500    1.000
    C34      C        0.38990    0.04200    0.82950    1.000
    C35      C        0.35560    0.04250    0.89120    1.000
    H21      H        0.32650    0.01600    0.89280    1.000
    C36      C        0.36370    0.08180    0.95050    1.000
    H22      H        0.34030    0.08210    0.99260    1.000
    Zn2      Zn       0.64194    0.56619    0.31002    1.000
    O13      O        0.74350    0.57150    0.20760    1.000
    O14      O        0.69690    0.62000    0.29920    1.000
    O15      O        0.56830    0.60180    0.29540    1.000
    O16      O        0.52860    0.43700    0.19000    1.000
    O17      O        0.64390    0.54630    0.42080    1.000
    O18      O        0.86450    0.35000    0.70600    1.000
    O19      O        0.91930    0.27640    0.71800    1.000
    O20      O        0.89250    0.13130    0.89410    1.000
    O21      O        0.83660    0.14250    0.99000    1.000
    O22      O        0.01640    0.65540    0.82700    1.000
    O23      O        0.98150    0.70530    0.92100    1.000
    O24      O        0.85130    0.53540    0.76400    1.000
    N8       N        0.73810    0.39060    0.83320    1.000
    N9       N        0.77990    0.36290    0.79960    1.000
    H23      H        0.79440    0.37910    0.75980    1.000
    N10      N        0.87720    0.30310    0.73180    1.000
    N11      N        0.85780    0.15680    0.93000    1.000
    N12      N        0.88070    0.66500    0.06410    1.000
    N13      N        0.91220    0.66390    0.00000    1.000
    H24      H        0.93580    0.69100    0.99240    1.000
    N14      N        0.98300    0.66390    0.87730    1.000
    C37      C        0.73040    0.61410    0.24690    1.000
    C38      C        0.77260    0.66040    0.24450    1.000
    C39      C        0.77760    0.70040    0.30330    1.000
    H25      H        0.75340    0.69970    0.34450    1.000
    C40      C        0.81810    0.74140    0.30170    1.000
    H26      H        0.82150    0.76870    0.34190    1.000
    C41      C        0.85360    0.74240    0.24140    1.000
    C42      C        0.84850    0.70240    0.18260    1.000
    C43      C        0.80810    0.66140    0.18410    1.000
    H27      H        0.80460    0.63410    0.14390    1.000
    C44      C        0.63840    0.49180    0.03770    1.000
    C45      C        0.59733    0.51855    0.90330    1.000
    H28      H        0.56660    0.53420    0.92680    1.000
    C46      C        0.59710    0.51415    0.82270    1.000
    H29      H        0.56620    0.52680    0.79110    1.000
    C47      C        0.64220    0.49120    0.78820    1.000
    C48      C        0.68737    0.47270    0.83430    1.000
    C49      C        0.68760    0.47706    0.91490    1.000
    H30      H        0.71850    0.46440    0.94650    1.000
    C50      C        0.53040    0.59850    0.24160    1.000
    C51      C        0.48640    0.63620    0.24600    1.000
    C52      C        0.44650    0.63795    0.18460    1.000
    H31      H        0.44770    0.61170    0.14320    1.000
    C53      C        0.40507    0.67802    0.18390    1.000
    H32      H        0.37780    0.67920    0.14200    1.000
    C54      C        0.90344    0.78361    0.24460    1.000
    C55      C        0.94330    0.78530    0.30590    1.000
    H33      H        0.94220    0.75910    0.34740    1.000
    C56      C        0.48470    0.67460    0.30660    1.000
    H34      H        0.51200    0.67350    0.34850    1.000
    C57      C        0.64280    0.54890    0.58030    1.000
    H35      H        0.64030    0.58330    0.55250    1.000
    C58      C        0.64322    0.54920    0.66020    1.000
    H36      H        0.64210    0.58400    0.68710    1.000
    C59      C        0.72688    0.43432    0.79680    1.000
    H37      H        0.74210    0.44290    0.74860    1.000
    C60      C        0.80160    0.31010    0.82380    1.000
    C61      C        0.84120    0.27790    0.78970    1.000
    C62      C        0.85960    0.22830    0.82460    1.000
    H38      H        0.88660    0.20630    0.80130    1.000
    C63      C        0.83830    0.21077    0.89380    1.000
    C64      C        0.79870    0.24292    0.92800    1.000
    H39      H        0.78420    0.23090    0.97520    1.000
    C65      C        0.78030    0.29255    0.89300    1.000
    H40      H        0.75330    0.31450    0.91640    1.000
    C66      C        0.87846    0.70784    0.11140    1.000
    H41      H        0.89600    0.74210    0.09970    1.000
    C67      C        0.90630    0.62050    0.94810    1.000
    C68      C        0.94060    0.61990    0.88600    1.000
    C69      C        0.93240    0.58070    0.82720    1.000
    H42      H        0.95590    0.58030    0.78500    1.000
    C70      C        0.88990    0.54200    0.82950    1.000
    C71      C        0.85560    0.54250    0.89120    1.000
    H43      H        0.82650    0.51600    0.89280    1.000
    C72      C        0.86370    0.58180    0.95050    1.000
    H44      H        0.84030    0.58210    0.99260    1.000
    Zn3      Zn       0.14194    0.93381    0.31002    1.000
    O25      O        0.24350    0.92850    0.20760    1.000
    O26      O        0.19690    0.88000    0.29920    1.000
    O27      O        0.06830    0.89820    0.29540    1.000
    O28      O        0.02860    0.06300    0.19000    1.000
    O29      O        0.14390    0.95370    0.42080    1.000
    O30      O        0.36450    0.15000    0.70600    1.000
    O31      O        0.41930    0.22360    0.71800    1.000
    O32      O        0.39250    0.36870    0.89410    1.000
    O33      O        0.33660    0.35750    0.99000    1.000
    O34      O        0.51640    0.84460    0.82700    1.000
    O35      O        0.48150    0.79470    0.92100    1.000
    O36      O        0.35130    0.96460    0.76400    1.000
    N15      N        0.23810    0.10940    0.83320    1.000
    N16      N        0.27990    0.13710    0.79960    1.000
    H45      H        0.29440    0.12090    0.75980    1.000
    N17      N        0.37720    0.19690    0.73180    1.000
    N18      N        0.35780    0.34320    0.93000    1.000
    N19      N        0.38070    0.83500    0.06410    1.000
    N20      N        0.41220    0.83610    0.00000    1.000
    H46      H        0.43580    0.80900    0.99240    1.000
    N21      N        0.48300    0.83610    0.87730    1.000
    C73      C        0.23040    0.88590    0.24690    1.000
    C74      C        0.27260    0.83960    0.24450    1.000
    C75      C        0.27760    0.79960    0.30330    1.000
    H47      H        0.25340    0.80030    0.34450    1.000
    C76      C        0.31810    0.75860    0.30170    1.000
    H48      H        0.32150    0.73130    0.34190    1.000
    C77      C        0.35360    0.75760    0.24140    1.000
    C78      C        0.34850    0.79760    0.18260    1.000
    C79      C        0.30810    0.83860    0.18410    1.000
    H49      H        0.30460    0.86590    0.14390    1.000
    C80      C        0.13840    0.00820    0.03770    1.000
    C81      C        0.09733    0.98145    0.90330    1.000
    H50      H        0.06660    0.96580    0.92680    1.000
    C82      C        0.09710    0.98585    0.82270    1.000
    H51      H        0.06620    0.97320    0.79110    1.000
    C83      C        0.14220    0.00880    0.78820    1.000
    C84      C        0.18737    0.02730    0.83430    1.000
    C85      C        0.18760    0.02294    0.91490    1.000
    H52      H        0.21850    0.03560    0.94650    1.000
    C86      C        0.03040    0.90150    0.24160    1.000
    C87      C        0.98640    0.86380    0.24600    1.000
    C88      C        0.94650    0.86205    0.18460    1.000
    H53      H        0.94770    0.88830    0.14320    1.000
    C89      C        0.90507    0.82198    0.18390    1.000
    H54      H        0.87780    0.82080    0.14200    1.000
    C90      C        0.40344    0.71639    0.24460    1.000
    C91      C        0.44330    0.71470    0.30590    1.000
    H55      H        0.44220    0.74090    0.34740    1.000
    C92      C        0.98470    0.82540    0.30660    1.000
    H56      H        0.01200    0.82650    0.34850    1.000
    C93      C        0.14280    0.95110    0.58030    1.000
    H57      H        0.14030    0.91670    0.55250    1.000
    C94      C        0.14322    0.95080    0.66020    1.000
    H58      H        0.14210    0.91600    0.68710    1.000
    C95      C        0.22688    0.06568    0.79680    1.000
    H59      H        0.24210    0.05710    0.74860    1.000
    C96      C        0.30160    0.18990    0.82380    1.000
    C97      C        0.34120    0.22210    0.78970    1.000
    C98      C        0.35960    0.27170    0.82460    1.000
    H60      H        0.38660    0.29370    0.80130    1.000
    C99      C        0.33830    0.28923    0.89380    1.000
    C100     C        0.29870    0.25708    0.92800    1.000
    H61      H        0.28420    0.26910    0.97520    1.000
    C101     C        0.28030    0.20745    0.89300    1.000
    H62      H        0.25330    0.18550    0.91640    1.000
    C102     C        0.37846    0.79216    0.11140    1.000
    H63      H        0.39600    0.75790    0.09970    1.000
    C103     C        0.40630    0.87950    0.94810    1.000
    C104     C        0.44060    0.88010    0.88600    1.000
    C105     C        0.43240    0.91930    0.82720    1.000
    H64      H        0.45590    0.91970    0.78500    1.000
    C106     C        0.38990    0.95800    0.82950    1.000
    C107     C        0.35560    0.95750    0.89120    1.000
    H65      H        0.32650    0.98400    0.89280    1.000
    C108     C        0.36370    0.91820    0.95050    1.000
    H66      H        0.34030    0.91790    0.99260    1.000
    Zn4      Zn       0.64194    0.43381    0.31002    1.000
    O37      O        0.74350    0.42850    0.20760    1.000
    O38      O        0.69690    0.38000    0.29920    1.000
    O39      O        0.56830    0.39820    0.29540    1.000
    O40      O        0.52860    0.56300    0.19000    1.000
    O41      O        0.64390    0.45370    0.42080    1.000
    O42      O        0.86450    0.65000    0.70600    1.000
    O43      O        0.91930    0.72360    0.71800    1.000
    O44      O        0.89250    0.86870    0.89410    1.000
    O45      O        0.83660    0.85750    0.99000    1.000
    O46      O        0.01640    0.34460    0.82700    1.000
    O47      O        0.98150    0.29470    0.92100    1.000
    O48      O        0.85130    0.46460    0.76400    1.000
    N22      N        0.73810    0.60940    0.83320    1.000
    N23      N        0.77990    0.63710    0.79960    1.000
    H67      H        0.79440    0.62090    0.75980    1.000
    N24      N        0.87720    0.69690    0.73180    1.000
    N25      N        0.85780    0.84320    0.93000    1.000
    N26      N        0.88070    0.33500    0.06410    1.000
    N27      N        0.91220    0.33610    0.00000    1.000
    H68      H        0.93580    0.30900    0.99240    1.000
    N28      N        0.98300    0.33610    0.87730    1.000
    C109     C        0.73040    0.38590    0.24690    1.000
    C110     C        0.77260    0.33960    0.24450    1.000
    C111     C        0.77760    0.29960    0.30330    1.000
    H69      H        0.75340    0.30030    0.34450    1.000
    C112     C        0.81810    0.25860    0.30170    1.000
    H70      H        0.82150    0.23130    0.34190    1.000
    C113     C        0.85360    0.25760    0.24140    1.000
    C114     C        0.84850    0.29760    0.18260    1.000
    C115     C        0.80810    0.33860    0.18410    1.000
    H71      H        0.80460    0.36590    0.14390    1.000
    C116     C        0.63840    0.50820    0.03770    1.000
    C117     C        0.59733    0.48145    0.90330    1.000
    H72      H        0.56660    0.46580    0.92680    1.000
    C118     C        0.59710    0.48585    0.82270    1.000
    H73      H        0.56620    0.47320    0.79110    1.000
    C119     C        0.64220    0.50880    0.78820    1.000
    C120     C        0.68737    0.52730    0.83430    1.000
    C121     C        0.68760    0.52294    0.91490    1.000
    H74      H        0.71850    0.53560    0.94650    1.000
    C122     C        0.53040    0.40150    0.24160    1.000
    C123     C        0.48640    0.36380    0.24600    1.000
    C124     C        0.44650    0.36205    0.18460    1.000
    H75      H        0.44770    0.38830    0.14320    1.000
    C125     C        0.40507    0.32198    0.18390    1.000
    H76      H        0.37780    0.32080    0.14200    1.000
    C126     C        0.90344    0.21639    0.24460    1.000
    C127     C        0.94330    0.21470    0.30590    1.000
    H77      H        0.94220    0.24090    0.34740    1.000
    C128     C        0.48470    0.32540    0.30660    1.000
    H78      H        0.51200    0.32650    0.34850    1.000
    C129     C        0.64280    0.45110    0.58030    1.000
    H79      H        0.64030    0.41670    0.55250    1.000
    C130     C        0.64322    0.45080    0.66020    1.000
    H80      H        0.64210    0.41600    0.68710    1.000
    C131     C        0.72688    0.56568    0.79680    1.000
    H81      H        0.74210    0.55710    0.74860    1.000
    C132     C        0.80160    0.68990    0.82380    1.000
    C133     C        0.84120    0.72210    0.78970    1.000
    C134     C        0.85960    0.77170    0.82460    1.000
    H82      H        0.88660    0.79370    0.80130    1.000
    C135     C        0.83830    0.78923    0.89380    1.000
    C136     C        0.79870    0.75708    0.92800    1.000
    H83      H        0.78420    0.76910    0.97520    1.000
    C137     C        0.78030    0.70745    0.89300    1.000
    H84      H        0.75330    0.68550    0.91640    1.000
    C138     C        0.87846    0.29216    0.11140    1.000
    H85      H        0.89600    0.25790    0.09970    1.000
    C139     C        0.90630    0.37950    0.94810    1.000
    C140     C        0.94060    0.38010    0.88600    1.000
    C141     C        0.93240    0.41930    0.82720    1.000
    H86      H        0.95590    0.41970    0.78500    1.000
    C142     C        0.88990    0.45800    0.82950    1.000
    C143     C        0.85560    0.45750    0.89120    1.000
    H87      H        0.82650    0.48400    0.89280    1.000
    C144     C        0.86370    0.41820    0.95050    1.000
    H88      H        0.84030    0.41790    0.99260    1.000
    Zn5      Zn       0.07869    0.00000    0.17430    1.000
    Zn6      Zn       0.20859    0.00000    0.18591    1.000
    O49      O        0.14280    0.00000    0.24560    1.000
    O50      O        0.09180    0.00000    0.06360    1.000
    O51      O        0.18370    0.00000    0.07620    1.000
    O52      O        0.42830    0.00000    0.72270    1.000
    N29      N        0.38890    0.00000    0.76480    1.000
    C145     C        0.14250    0.00000    0.94940    1.000
    C146     C        0.14310    0.00000    0.45280    1.000
    C147     C        0.14600    0.00000    0.54080    1.000
    C148     C        0.14523    0.00000    0.70190    1.000
    Zn7      Zn       0.57869    0.50000    0.17430    1.000
    Zn8      Zn       0.70859    0.50000    0.18591    1.000
    O53      O        0.64280    0.50000    0.24560    1.000
    O54      O        0.59180    0.50000    0.06360    1.000
    O55      O        0.68370    0.50000    0.07620    1.000
    O56      O        0.92830    0.50000    0.72270    1.000
    N30      N        0.88890    0.50000    0.76480    1.000
    C149     C        0.64250    0.50000    0.94940    1.000
    C150     C        0.64310    0.50000    0.45280    1.000
    C151     C        0.64600    0.50000    0.54080    1.000
    C152     C        0.64523    0.50000    0.70190    1.000
    Zn9      Zn       0.85806    0.06619    0.68998    1.000
    O57      O        0.75650    0.07150    0.79240    1.000
    O58      O        0.80310    0.12000    0.70080    1.000
    O59      O        0.93170    0.10180    0.70460    1.000
    O60      O        0.97140    0.93700    0.81000    1.000
    O61      O        0.85610    0.04630    0.57920    1.000
    O62      O        0.63550    0.85000    0.29400    1.000
    O63      O        0.58070    0.77640    0.28200    1.000
    O64      O        0.60750    0.63130    0.10590    1.000
    O65      O        0.66340    0.64250    0.01000    1.000
    O66      O        0.48360    0.15540    0.17300    1.000
    O67      O        0.51850    0.20530    0.07900    1.000
    O68      O        0.64870    0.03540    0.23600    1.000
    N31      N        0.76190    0.89060    0.16680    1.000
    N32      N        0.72010    0.86290    0.20040    1.000
    H89      H        0.70560    0.87910    0.24020    1.000
    N33      N        0.62280    0.80310    0.26820    1.000
    N34      N        0.64220    0.65680    0.07000    1.000
    N35      N        0.61930    0.16500    0.93590    1.000
    N36      N        0.58780    0.16390    0.00000    1.000
    H90      H        0.56420    0.19100    0.00760    1.000
    N37      N        0.51700    0.16390    0.12270    1.000
    C153     C        0.76960    0.11410    0.75310    1.000
    C154     C        0.72740    0.16040    0.75550    1.000
    C155     C        0.72240    0.20040    0.69670    1.000
    H91      H        0.74660    0.19970    0.65550    1.000
    C156     C        0.68190    0.24140    0.69830    1.000
    H92      H        0.67850    0.26870    0.65810    1.000
    C157     C        0.64640    0.24240    0.75860    1.000
    C158     C        0.65150    0.20240    0.81740    1.000
    C159     C        0.69190    0.16140    0.81590    1.000
    H93      H        0.69540    0.13410    0.85610    1.000
    C160     C        0.86160    0.99180    0.96230    1.000
    C161     C        0.90267    0.01855    0.09670    1.000
    H94      H        0.93340    0.03420    0.07320    1.000
    C162     C        0.90290    0.01415    0.17730    1.000
    H95      H        0.93380    0.02680    0.20890    1.000
    C163     C        0.85780    0.99120    0.21180    1.000
    C164     C        0.81263    0.97270    0.16570    1.000
    C165     C        0.81240    0.97706    0.08510    1.000
    H96      H        0.78150    0.96440    0.05350    1.000
    C166     C        0.96960    0.09850    0.75840    1.000
    C167     C        0.01360    0.13620    0.75400    1.000
    C168     C        0.05350    0.13795    0.81540    1.000
    H97      H        0.05230    0.11170    0.85680    1.000
    C169     C        0.09493    0.17802    0.81610    1.000
    H98      H        0.12220    0.17920    0.85800    1.000
    C170     C        0.59656    0.28361    0.75540    1.000
    C171     C        0.55670    0.28530    0.69410    1.000
    H99      H        0.55780    0.25910    0.65260    1.000
    C172     C        0.01530    0.17460    0.69340    1.000
    H100     H        0.98800    0.17350    0.65150    1.000
    C173     C        0.85720    0.04890    0.41970    1.000
    H101     H        0.85970    0.08330    0.44750    1.000
    C174     C        0.85678    0.04920    0.33980    1.000
    H102     H        0.85790    0.08400    0.31290    1.000
    C175     C        0.77312    0.93432    0.20320    1.000
    H103     H        0.75790    0.94290    0.25140    1.000
    C176     C        0.69840    0.81010    0.17620    1.000
    C177     C        0.65880    0.77790    0.21030    1.000
    C178     C        0.64040    0.72830    0.17540    1.000
    H104     H        0.61340    0.70630    0.19870    1.000
    C179     C        0.66170    0.71077    0.10620    1.000
    C180     C        0.70130    0.74292    0.07200    1.000
    H105     H        0.71580    0.73090    0.02480    1.000
    C181     C        0.71970    0.79255    0.10700    1.000
    H106     H        0.74670    0.81450    0.08360    1.000
    C182     C        0.62154    0.20784    0.88860    1.000
    H107     H        0.60400    0.24210    0.90030    1.000
    C183     C        0.59370    0.12050    0.05190    1.000
    C184     C        0.55940    0.11990    0.11400    1.000
    C185     C        0.56760    0.08070    0.17280    1.000
    H108     H        0.54410    0.08030    0.21500    1.000
    C186     C        0.61010    0.04200    0.17050    1.000
    C187     C        0.64440    0.04250    0.10880    1.000
    H109     H        0.67350    0.01600    0.10720    1.000
    C188     C        0.63630    0.08180    0.04950    1.000
    H110     H        0.65970    0.08210    0.00740    1.000
    Zn10     Zn       0.35806    0.56619    0.68998    1.000
    O69      O        0.25650    0.57150    0.79240    1.000
    O70      O        0.30310    0.62000    0.70080    1.000
    O71      O        0.43170    0.60180    0.70460    1.000
    O72      O        0.47140    0.43700    0.81000    1.000
    O73      O        0.35610    0.54630    0.57920    1.000
    O74      O        0.13550    0.35000    0.29400    1.000
    O75      O        0.08070    0.27640    0.28200    1.000
    O76      O        0.10750    0.13130    0.10590    1.000
    O77      O        0.16340    0.14250    0.01000    1.000
    O78      O        0.98360    0.65540    0.17300    1.000
    O79      O        0.01850    0.70530    0.07900    1.000
    O80      O        0.14870    0.53540    0.23600    1.000
    N38      N        0.26190    0.39060    0.16680    1.000
    N39      N        0.22010    0.36290    0.20040    1.000
    H111     H        0.20560    0.37910    0.24020    1.000
    N40      N        0.12280    0.30310    0.26820    1.000
    N41      N        0.14220    0.15680    0.07000    1.000
    N42      N        0.11930    0.66500    0.93590    1.000
    N43      N        0.08780    0.66390    0.00000    1.000
    H112     H        0.06420    0.69100    0.00760    1.000
    N44      N        0.01700    0.66390    0.12270    1.000
    C189     C        0.26960    0.61410    0.75310    1.000
    C190     C        0.22740    0.66040    0.75550    1.000
    C191     C        0.22240    0.70040    0.69670    1.000
    H113     H        0.24660    0.69970    0.65550    1.000
    C192     C        0.18190    0.74140    0.69830    1.000
    H114     H        0.17850    0.76870    0.65810    1.000
    C193     C        0.14640    0.74240    0.75860    1.000
    C194     C        0.15150    0.70240    0.81740    1.000
    C195     C        0.19190    0.66140    0.81590    1.000
    H115     H        0.19540    0.63410    0.85610    1.000
    C196     C        0.36160    0.49180    0.96230    1.000
    C197     C        0.40267    0.51855    0.09670    1.000
    H116     H        0.43340    0.53420    0.07320    1.000
    C198     C        0.40290    0.51415    0.17730    1.000
    H117     H        0.43380    0.52680    0.20890    1.000
    C199     C        0.35780    0.49120    0.21180    1.000
    C200     C        0.31263    0.47270    0.16570    1.000
    C201     C        0.31240    0.47706    0.08510    1.000
    H118     H        0.28150    0.46440    0.05350    1.000
    C202     C        0.46960    0.59850    0.75840    1.000
    C203     C        0.51360    0.63620    0.75400    1.000
    C204     C        0.55350    0.63795    0.81540    1.000
    H119     H        0.55230    0.61170    0.85680    1.000
    C205     C        0.59493    0.67802    0.81610    1.000
    H120     H        0.62220    0.67920    0.85800    1.000
    C206     C        0.09656    0.78361    0.75540    1.000
    C207     C        0.05670    0.78530    0.69410    1.000
    H121     H        0.05780    0.75910    0.65260    1.000
    C208     C        0.51530    0.67460    0.69340    1.000
    H122     H        0.48800    0.67350    0.65150    1.000
    C209     C        0.35720    0.54890    0.41970    1.000
    H123     H        0.35970    0.58330    0.44750    1.000
    C210     C        0.35678    0.54920    0.33980    1.000
    H124     H        0.35790    0.58400    0.31290    1.000
    C211     C        0.27312    0.43432    0.20320    1.000
    H125     H        0.25790    0.44290    0.25140    1.000
    C212     C        0.19840    0.31010    0.17620    1.000
    C213     C        0.15880    0.27790    0.21030    1.000
    C214     C        0.14040    0.22830    0.17540    1.000
    H126     H        0.11340    0.20630    0.19870    1.000
    C215     C        0.16170    0.21077    0.10620    1.000
    C216     C        0.20130    0.24292    0.07200    1.000
    H127     H        0.21580    0.23090    0.02480    1.000
    C217     C        0.21970    0.29255    0.10700    1.000
    H128     H        0.24670    0.31450    0.08360    1.000
    C218     C        0.12154    0.70784    0.88860    1.000
    H129     H        0.10400    0.74210    0.90030    1.000
    C219     C        0.09370    0.62050    0.05190    1.000
    C220     C        0.05940    0.61990    0.11400    1.000
    C221     C        0.06760    0.58070    0.17280    1.000
    H130     H        0.04410    0.58030    0.21500    1.000
    C222     C        0.11010    0.54200    0.17050    1.000
    C223     C        0.14440    0.54250    0.10880    1.000
    H131     H        0.17350    0.51600    0.10720    1.000
    C224     C        0.13630    0.58180    0.04950    1.000
    H132     H        0.15970    0.58210    0.00740    1.000
    Zn11     Zn       0.85806    0.93381    0.68998    1.000
    O81      O        0.75650    0.92850    0.79240    1.000
    O82      O        0.80310    0.88000    0.70080    1.000
    O83      O        0.93170    0.89820    0.70460    1.000
    O84      O        0.97140    0.06300    0.81000    1.000
    O85      O        0.85610    0.95370    0.57920    1.000
    O86      O        0.63550    0.15000    0.29400    1.000
    O87      O        0.58070    0.22360    0.28200    1.000
    O88      O        0.60750    0.36870    0.10590    1.000
    O89      O        0.66340    0.35750    0.01000    1.000
    O90      O        0.48360    0.84460    0.17300    1.000
    O91      O        0.51850    0.79470    0.07900    1.000
    O92      O        0.64870    0.96460    0.23600    1.000
    N45      N        0.76190    0.10940    0.16680    1.000
    N46      N        0.72010    0.13710    0.20040    1.000
    H133     H        0.70560    0.12090    0.24020    1.000
    N47      N        0.62280    0.19690    0.26820    1.000
    N48      N        0.64220    0.34320    0.07000    1.000
    N49      N        0.61930    0.83500    0.93590    1.000
    N50      N        0.58780    0.83610    0.00000    1.000
    H134     H        0.56420    0.80900    0.00760    1.000
    N51      N        0.51700    0.83610    0.12270    1.000
    C225     C        0.76960    0.88590    0.75310    1.000
    C226     C        0.72740    0.83960    0.75550    1.000
    C227     C        0.72240    0.79960    0.69670    1.000
    H135     H        0.74660    0.80030    0.65550    1.000
    C228     C        0.68190    0.75860    0.69830    1.000
    H136     H        0.67850    0.73130    0.65810    1.000
    C229     C        0.64640    0.75760    0.75860    1.000
    C230     C        0.65150    0.79760    0.81740    1.000
    C231     C        0.69190    0.83860    0.81590    1.000
    H137     H        0.69540    0.86590    0.85610    1.000
    C232     C        0.86160    0.00820    0.96230    1.000
    C233     C        0.90267    0.98145    0.09670    1.000
    H138     H        0.93340    0.96580    0.07320    1.000
    C234     C        0.90290    0.98585    0.17730    1.000
    H139     H        0.93380    0.97320    0.20890    1.000
    C235     C        0.85780    0.00880    0.21180    1.000
    C236     C        0.81263    0.02730    0.16570    1.000
    C237     C        0.81240    0.02294    0.08510    1.000
    H140     H        0.78150    0.03560    0.05350    1.000
    C238     C        0.96960    0.90150    0.75840    1.000
    C239     C        0.01360    0.86380    0.75400    1.000
    C240     C        0.05350    0.86205    0.81540    1.000
    H141     H        0.05230    0.88830    0.85680    1.000
    C241     C        0.09493    0.82198    0.81610    1.000
    H142     H        0.12220    0.82080    0.85800    1.000
    C242     C        0.59656    0.71639    0.75540    1.000
    C243     C        0.55670    0.71470    0.69410    1.000
    H143     H        0.55780    0.74090    0.65260    1.000
    C244     C        0.01530    0.82540    0.69340    1.000
    H144     H        0.98800    0.82650    0.65150    1.000
    C245     C        0.85720    0.95110    0.41970    1.000
    H145     H        0.85970    0.91670    0.44750    1.000
    C246     C        0.85678    0.95080    0.33980    1.000
    H146     H        0.85790    0.91600    0.31290    1.000
    C247     C        0.77312    0.06568    0.20320    1.000
    H147     H        0.75790    0.05710    0.25140    1.000
    C248     C        0.69840    0.18990    0.17620    1.000
    C249     C        0.65880    0.22210    0.21030    1.000
    C250     C        0.64040    0.27170    0.17540    1.000
    H148     H        0.61340    0.29370    0.19870    1.000
    C251     C        0.66170    0.28923    0.10620    1.000
    C252     C        0.70130    0.25708    0.07200    1.000
    H149     H        0.71580    0.26910    0.02480    1.000
    C253     C        0.71970    0.20745    0.10700    1.000
    H150     H        0.74670    0.18550    0.08360    1.000
    C254     C        0.62154    0.79216    0.88860    1.000
    H151     H        0.60400    0.75790    0.90030    1.000
    C255     C        0.59370    0.87950    0.05190    1.000
    C256     C        0.55940    0.88010    0.11400    1.000
    C257     C        0.56760    0.91930    0.17280    1.000
    H152     H        0.54410    0.91970    0.21500    1.000
    C258     C        0.61010    0.95800    0.17050    1.000
    C259     C        0.64440    0.95750    0.10880    1.000
    H153     H        0.67350    0.98400    0.10720    1.000
    C260     C        0.63630    0.91820    0.04950    1.000
    H154     H        0.65970    0.91790    0.00740    1.000
    Zn12     Zn       0.35806    0.43381    0.68998    1.000
    O93      O        0.25650    0.42850    0.79240    1.000
    O94      O        0.30310    0.38000    0.70080    1.000
    O95      O        0.43170    0.39820    0.70460    1.000
    O96      O        0.47140    0.56300    0.81000    1.000
    O97      O        0.35610    0.45370    0.57920    1.000
    O98      O        0.13550    0.65000    0.29400    1.000
    O99      O        0.08070    0.72360    0.28200    1.000
    O100     O        0.10750    0.86870    0.10590    1.000
    O101     O        0.16340    0.85750    0.01000    1.000
    O102     O        0.98360    0.34460    0.17300    1.000
    O103     O        0.01850    0.29470    0.07900    1.000
    O104     O        0.14870    0.46460    0.23600    1.000
    N52      N        0.26190    0.60940    0.16680    1.000
    N53      N        0.22010    0.63710    0.20040    1.000
    H155     H        0.20560    0.62090    0.24020    1.000
    N54      N        0.12280    0.69690    0.26820    1.000
    N55      N        0.14220    0.84320    0.07000    1.000
    N56      N        0.11930    0.33500    0.93590    1.000
    N57      N        0.08780    0.33610    0.00000    1.000
    H156     H        0.06420    0.30900    0.00760    1.000
    N58      N        0.01700    0.33610    0.12270    1.000
    C261     C        0.26960    0.38590    0.75310    1.000
    C262     C        0.22740    0.33960    0.75550    1.000
    C263     C        0.22240    0.29960    0.69670    1.000
    H157     H        0.24660    0.30030    0.65550    1.000
    C264     C        0.18190    0.25860    0.69830    1.000
    H158     H        0.17850    0.23130    0.65810    1.000
    C265     C        0.14640    0.25760    0.75860    1.000
    C266     C        0.15150    0.29760    0.81740    1.000
    C267     C        0.19190    0.33860    0.81590    1.000
    H159     H        0.19540    0.36590    0.85610    1.000
    C268     C        0.36160    0.50820    0.96230    1.000
    C269     C        0.40267    0.48145    0.09670    1.000
    H160     H        0.43340    0.46580    0.07320    1.000
    C270     C        0.40290    0.48585    0.17730    1.000
    H161     H        0.43380    0.47320    0.20890    1.000
    C271     C        0.35780    0.50880    0.21180    1.000
    C272     C        0.31263    0.52730    0.16570    1.000
    C273     C        0.31240    0.52294    0.08510    1.000
    H162     H        0.28150    0.53560    0.05350    1.000
    C274     C        0.46960    0.40150    0.75840    1.000
    C275     C        0.51360    0.36380    0.75400    1.000
    C276     C        0.55350    0.36205    0.81540    1.000
    H163     H        0.55230    0.38830    0.85680    1.000
    C277     C        0.59493    0.32198    0.81610    1.000
    H164     H        0.62220    0.32080    0.85800    1.000
    C278     C        0.09656    0.21639    0.75540    1.000
    C279     C        0.05670    0.21470    0.69410    1.000
    H165     H        0.05780    0.24090    0.65260    1.000
    C280     C        0.51530    0.32540    0.69340    1.000
    H166     H        0.48800    0.32650    0.65150    1.000
    C281     C        0.35720    0.45110    0.41970    1.000
    H167     H        0.35970    0.41670    0.44750    1.000
    C282     C        0.35678    0.45080    0.33980    1.000
    H168     H        0.35790    0.41600    0.31290    1.000
    C283     C        0.27312    0.56568    0.20320    1.000
    H169     H        0.25790    0.55710    0.25140    1.000
    C284     C        0.19840    0.68990    0.17620    1.000
    C285     C        0.15880    0.72210    0.21030    1.000
    C286     C        0.14040    0.77170    0.17540    1.000
    H170     H        0.11340    0.79370    0.19870    1.000
    C287     C        0.16170    0.78923    0.10620    1.000
    C288     C        0.20130    0.75708    0.07200    1.000
    H171     H        0.21580    0.76910    0.02480    1.000
    C289     C        0.21970    0.70745    0.10700    1.000
    H172     H        0.24670    0.68550    0.08360    1.000
    C290     C        0.12154    0.29216    0.88860    1.000
    H173     H        0.10400    0.25790    0.90030    1.000
    C291     C        0.09370    0.37950    0.05190    1.000
    C292     C        0.05940    0.38010    0.11400    1.000
    C293     C        0.06760    0.41930    0.17280    1.000
    H174     H        0.04410    0.41970    0.21500    1.000
    C294     C        0.11010    0.45800    0.17050    1.000
    C295     C        0.14440    0.45750    0.10880    1.000
    H175     H        0.17350    0.48400    0.10720    1.000
    C296     C        0.13630    0.41820    0.04950    1.000
    H176     H        0.15970    0.41790    0.00740    1.000
    Zn13     Zn       0.92131    0.00000    0.82570    1.000
    Zn14     Zn       0.79141    0.00000    0.81409    1.000
    O105     O        0.85720    0.00000    0.75440    1.000
    O106     O        0.90820    0.00000    0.93640    1.000
    O107     O        0.81630    0.00000    0.92380    1.000
    O108     O        0.57170    0.00000    0.27730    1.000
    N59      N        0.61110    0.00000    0.23520    1.000
    C297     C        0.85750    0.00000    0.05060    1.000
    C298     C        0.85690    0.00000    0.54720    1.000
    C299     C        0.85400    0.00000    0.45920    1.000
    C300     C        0.85477    0.00000    0.29810    1.000
    Zn15     Zn       0.42131    0.50000    0.82570    1.000
    Zn16     Zn       0.29141    0.50000    0.81409    1.000
    O109     O        0.35720    0.50000    0.75440    1.000
    O110     O        0.40820    0.50000    0.93640    1.000
    O111     O        0.31630    0.50000    0.92380    1.000
    O112     O        0.07170    0.50000    0.27730    1.000
    N60      N        0.11110    0.50000    0.23520    1.000
    C301     C        0.35750    0.50000    0.05060    1.000
    C302     C        0.35690    0.50000    0.54720    1.000
    C303     C        0.35400    0.50000    0.45920    1.000
    C304     C        0.35477    0.50000    0.29810    1.000
