# CIF file generated by openbabel 3.1.0, see https://openbabel.org
data_I
_chemical_name_common 'image0'
_cell_length_a 15.6958
_cell_length_b 10.6984
_cell_length_c 23.2644
_cell_angle_alpha 90
_cell_angle_beta 90
_cell_angle_gamma 90
_space_group_name_H-M_alt 'P 1'
_space_group_name_Hall 'P 1'
loop_
    _symmetry_equiv_pos_as_xyz
    x,y,z
loop_
    _atom_site_label
    _atom_site_type_symbol
    _atom_site_fract_x
    _atom_site_fract_y
    _atom_site_fract_z
    _atom_site_occupancy
    Tm1      Tm       0.54784    0.03063    0.08413    1.000
    C1       C        0.40597    0.25010    0.20308    1.000
    C2       C        0.38275    0.20290    0.25600    1.000
    H1       H        0.40030    0.12140    0.26700    1.000
    C3       C        0.33362    0.27490    0.29325    1.000
    C4       C        0.30754    0.39290    0.27620    1.000
    H2       H        0.27150    0.44020    0.30080    1.000
    C5       C        0.33299    0.44380    0.22371    1.000
    C6       C        0.38220    0.37130    0.18731    1.000
    H3       H        0.40000    0.40410    0.15130    1.000
    C7       C        0.30960    0.57790    0.20910    1.000
    H4       H        0.25340    0.59650    0.22650    1.000
    H5       H        0.35180    0.63390    0.22740    1.000
    C8       C        0.30529    0.60980    0.14590    1.000
    C9       C        0.23550    0.57290    0.11281    1.000
    H6       H        0.19080    0.52640    0.13020    1.000
    C10      C        0.23047    0.60310    0.05457    1.000
    C11      C        0.29650    0.67130    0.02919    1.000
    H7       H        0.29450    0.68990    0.98930    1.000
    C12      C        0.36495    0.71170    0.06201    1.000
    C13      C        0.36922    0.68060    0.12003    1.000
    H8       H        0.41640    0.70790    0.14230    1.000
    C14      C        0.45715    0.17420    0.16140    1.000
    C15      C        0.30770    0.22190    0.35073    1.000
    C16      C        0.15502    0.56670    0.01886    1.000
    C17      C        0.43058    0.79530    0.03476    1.000
    O1       O        0.49112    0.22620    0.11940    1.000
    O2       O        0.46495    0.05630    0.16900    1.000
    O3       O        0.65783    0.12270    0.13257    1.000
    O4       O        0.25138    0.27700    0.37920    1.000
    O5       O        0.41593    0.05420    0.04274    1.000
    O6       O        0.66683    0.94860    0.03448    1.000
    O7       O        0.57971    0.17900    0.01735    1.000
    O8       O        0.49058    0.83430    0.06598    1.000
    Tm2      Tm       0.95216    0.46937    0.58413    1.000
    C18      C        0.09403    0.24990    0.70308    1.000
    C19      C        0.11725    0.29710    0.75600    1.000
    H9       H        0.09970    0.37860    0.76700    1.000
    C20      C        0.16638    0.22510    0.79325    1.000
    C21      C        0.19246    0.10710    0.77620    1.000
    H10      H        0.22850    0.05980    0.80080    1.000
    C22      C        0.16701    0.05620    0.72371    1.000
    C23      C        0.11780    0.12870    0.68731    1.000
    H11      H        0.10000    0.09590    0.65130    1.000
    C24      C        0.19040    0.92210    0.70910    1.000
    H12      H        0.24660    0.90350    0.72650    1.000
    H13      H        0.14820    0.86610    0.72740    1.000
    C25      C        0.19471    0.89020    0.64590    1.000
    C26      C        0.26450    0.92710    0.61281    1.000
    H14      H        0.30920    0.97360    0.63020    1.000
    C27      C        0.26953    0.89690    0.55457    1.000
    C28      C        0.20350    0.82870    0.52919    1.000
    H15      H        0.20550    0.81010    0.48930    1.000
    C29      C        0.13505    0.78830    0.56201    1.000
    C30      C        0.13078    0.81940    0.62003    1.000
    H16      H        0.08360    0.79210    0.64230    1.000
    C31      C        0.04285    0.32580    0.66140    1.000
    C32      C        0.19230    0.27810    0.85073    1.000
    C33      C        0.34498    0.93330    0.51886    1.000
    C34      C        0.06942    0.70470    0.53476    1.000
    O9       O        0.00888    0.27380    0.61940    1.000
    O10      O        0.03505    0.44370    0.66900    1.000
    O11      O        0.84217    0.37730    0.63257    1.000
    O12      O        0.24862    0.22300    0.87920    1.000
    O13      O        0.08407    0.44580    0.54274    1.000
    O14      O        0.83317    0.55140    0.53448    1.000
    O15      O        0.92029    0.32100    0.51735    1.000
    O16      O        0.00942    0.66570    0.56598    1.000
    Tm3      Tm       0.45216    0.03063    0.41587    1.000
    C35      C        0.59403    0.25010    0.29692    1.000
    C36      C        0.61725    0.20290    0.24400    1.000
    H17      H        0.59970    0.12140    0.23300    1.000
    C37      C        0.66638    0.27490    0.20675    1.000
    C38      C        0.69246    0.39290    0.22380    1.000
    H18      H        0.72850    0.44020    0.19920    1.000
    C39      C        0.66701    0.44380    0.27629    1.000
    C40      C        0.61780    0.37130    0.31269    1.000
    H19      H        0.60000    0.40410    0.34870    1.000
    C41      C        0.69040    0.57790    0.29090    1.000
    H20      H        0.74660    0.59650    0.27350    1.000
    H21      H        0.64820    0.63390    0.27260    1.000
    C42      C        0.69471    0.60980    0.35410    1.000
    C43      C        0.76450    0.57290    0.38719    1.000
    H22      H        0.80920    0.52640    0.36980    1.000
    C44      C        0.76953    0.60310    0.44543    1.000
    C45      C        0.70350    0.67130    0.47081    1.000
    H23      H        0.70550    0.68990    0.51070    1.000
    C46      C        0.63505    0.71170    0.43799    1.000
    C47      C        0.63078    0.68060    0.37997    1.000
    H24      H        0.58360    0.70790    0.35770    1.000
    C48      C        0.54285    0.17420    0.33860    1.000
    C49      C        0.69230    0.22190    0.14927    1.000
    C50      C        0.84498    0.56670    0.48114    1.000
    C51      C        0.56942    0.79530    0.46524    1.000
    O17      O        0.50888    0.22620    0.38060    1.000
    O18      O        0.53505    0.05630    0.33100    1.000
    O19      O        0.34217    0.12270    0.36743    1.000
    O20      O        0.74862    0.27700    0.12080    1.000
    O21      O        0.58407    0.05420    0.45726    1.000
    O22      O        0.33317    0.94860    0.46552    1.000
    O23      O        0.42029    0.17900    0.48265    1.000
    O24      O        0.50942    0.83430    0.43402    1.000
    Tm4      Tm       0.04784    0.46937    0.91587    1.000
    C52      C        0.90597    0.24990    0.79692    1.000
    C53      C        0.88275    0.29710    0.74400    1.000
    H25      H        0.90030    0.37860    0.73300    1.000
    C54      C        0.83362    0.22510    0.70675    1.000
    C55      C        0.80754    0.10710    0.72380    1.000
    H26      H        0.77150    0.05980    0.69920    1.000
    C56      C        0.83299    0.05620    0.77629    1.000
    C57      C        0.88220    0.12870    0.81269    1.000
    H27      H        0.90000    0.09590    0.84870    1.000
    C58      C        0.80960    0.92210    0.79090    1.000
    H28      H        0.75340    0.90350    0.77350    1.000
    H29      H        0.85180    0.86610    0.77260    1.000
    C59      C        0.80529    0.89020    0.85410    1.000
    C60      C        0.73550    0.92710    0.88719    1.000
    H30      H        0.69080    0.97360    0.86980    1.000
    C61      C        0.73047    0.89690    0.94543    1.000
    C62      C        0.79650    0.82870    0.97081    1.000
    H31      H        0.79450    0.81010    0.01070    1.000
    C63      C        0.86495    0.78830    0.93799    1.000
    C64      C        0.86922    0.81940    0.87997    1.000
    H32      H        0.91640    0.79210    0.85770    1.000
    C65      C        0.95715    0.32580    0.83860    1.000
    C66      C        0.80770    0.27810    0.64927    1.000
    C67      C        0.65502    0.93330    0.98114    1.000
    C68      C        0.93058    0.70470    0.96524    1.000
    O25      O        0.99112    0.27380    0.88060    1.000
    O26      O        0.96495    0.44370    0.83100    1.000
    O27      O        0.15783    0.37730    0.86743    1.000
    O28      O        0.75138    0.22300    0.62080    1.000
    O29      O        0.91593    0.44580    0.95726    1.000
    O30      O        0.16683    0.55140    0.96552    1.000
    O31      O        0.07971    0.32100    0.98265    1.000
    O32      O        0.99058    0.66570    0.93402    1.000
    Tm5      Tm       0.45216    0.96937    0.91587    1.000
    C69      C        0.59403    0.74990    0.79692    1.000
    C70      C        0.61725    0.79710    0.74400    1.000
    H33      H        0.59970    0.87860    0.73300    1.000
    C71      C        0.66638    0.72510    0.70675    1.000
    C72      C        0.69246    0.60710    0.72380    1.000
    H34      H        0.72850    0.55980    0.69920    1.000
    C73      C        0.66701    0.55620    0.77629    1.000
    C74      C        0.61780    0.62870    0.81269    1.000
    H35      H        0.60000    0.59590    0.84870    1.000
    C75      C        0.69040    0.42210    0.79090    1.000
    H36      H        0.74660    0.40350    0.77350    1.000
    H37      H        0.64820    0.36610    0.77260    1.000
    C76      C        0.69471    0.39020    0.85410    1.000
    C77      C        0.76450    0.42710    0.88719    1.000
    H38      H        0.80920    0.47360    0.86980    1.000
    C78      C        0.76953    0.39690    0.94543    1.000
    C79      C        0.70350    0.32870    0.97081    1.000
    H39      H        0.70550    0.31010    0.01070    1.000
    C80      C        0.63505    0.28830    0.93799    1.000
    C81      C        0.63078    0.31940    0.87997    1.000
    H40      H        0.58360    0.29210    0.85770    1.000
    C82      C        0.54285    0.82580    0.83860    1.000
    C83      C        0.69230    0.77810    0.64927    1.000
    C84      C        0.84498    0.43330    0.98114    1.000
    C85      C        0.56942    0.20470    0.96524    1.000
    O33      O        0.50888    0.77380    0.88060    1.000
    O34      O        0.53505    0.94370    0.83100    1.000
    O35      O        0.34217    0.87730    0.86743    1.000
    O36      O        0.74862    0.72300    0.62080    1.000
    O37      O        0.58407    0.94580    0.95726    1.000
    O38      O        0.33317    0.05140    0.96552    1.000
    O39      O        0.42029    0.82100    0.98265    1.000
    O40      O        0.50942    0.16570    0.93402    1.000
    Tm6      Tm       0.04784    0.53063    0.41587    1.000
    C86      C        0.90597    0.75010    0.29692    1.000
    C87      C        0.88275    0.70290    0.24400    1.000
    H41      H        0.90030    0.62140    0.23300    1.000
    C88      C        0.83362    0.77490    0.20675    1.000
    C89      C        0.80754    0.89290    0.22380    1.000
    H42      H        0.77150    0.94020    0.19920    1.000
    C90      C        0.83299    0.94380    0.27629    1.000
    C91      C        0.88220    0.87130    0.31269    1.000
    H43      H        0.90000    0.90410    0.34870    1.000
    C92      C        0.80960    0.07790    0.29090    1.000
    H44      H        0.75340    0.09650    0.27350    1.000
    H45      H        0.85180    0.13390    0.27260    1.000
    C93      C        0.80529    0.10980    0.35410    1.000
    C94      C        0.73550    0.07290    0.38719    1.000
    H46      H        0.69080    0.02640    0.36980    1.000
    C95      C        0.73047    0.10310    0.44543    1.000
    C96      C        0.79650    0.17130    0.47081    1.000
    H47      H        0.79450    0.18990    0.51070    1.000
    C97      C        0.86495    0.21170    0.43799    1.000
    C98      C        0.86922    0.18060    0.37997    1.000
    H48      H        0.91640    0.20790    0.35770    1.000
    C99      C        0.95715    0.67420    0.33860    1.000
    C100     C        0.80770    0.72190    0.14927    1.000
    C101     C        0.65502    0.06670    0.48114    1.000
    C102     C        0.93058    0.29530    0.46524    1.000
    O41      O        0.99112    0.72620    0.38060    1.000
    O42      O        0.96495    0.55630    0.33100    1.000
    O43      O        0.15783    0.62270    0.36743    1.000
    O44      O        0.75138    0.77700    0.12080    1.000
    O45      O        0.91593    0.55420    0.45726    1.000
    O46      O        0.16683    0.44860    0.46552    1.000
    O47      O        0.07971    0.67900    0.48265    1.000
    O48      O        0.99058    0.33430    0.43402    1.000
    Tm7      Tm       0.54784    0.96937    0.58413    1.000
    C103     C        0.40597    0.74990    0.70308    1.000
    C104     C        0.38275    0.79710    0.75600    1.000
    H49      H        0.40030    0.87860    0.76700    1.000
    C105     C        0.33362    0.72510    0.79325    1.000
    C106     C        0.30754    0.60710    0.77620    1.000
    H50      H        0.27150    0.55980    0.80080    1.000
    C107     C        0.33299    0.55620    0.72371    1.000
    C108     C        0.38220    0.62870    0.68731    1.000
    H51      H        0.40000    0.59590    0.65130    1.000
    C109     C        0.30960    0.42210    0.70910    1.000
    H52      H        0.25340    0.40350    0.72650    1.000
    H53      H        0.35180    0.36610    0.72740    1.000
    C110     C        0.30529    0.39020    0.64590    1.000
    C111     C        0.23550    0.42710    0.61281    1.000
    H54      H        0.19080    0.47360    0.63020    1.000
    C112     C        0.23047    0.39690    0.55457    1.000
    C113     C        0.29650    0.32870    0.52919    1.000
    H55      H        0.29450    0.31010    0.48930    1.000
    C114     C        0.36495    0.28830    0.56201    1.000
    C115     C        0.36922    0.31940    0.62003    1.000
    H56      H        0.41640    0.29210    0.64230    1.000
    C116     C        0.45715    0.82580    0.66140    1.000
    C117     C        0.30770    0.77810    0.85073    1.000
    C118     C        0.15502    0.43330    0.51886    1.000
    C119     C        0.43058    0.20470    0.53476    1.000
    O49      O        0.49112    0.77380    0.61940    1.000
    O50      O        0.46495    0.94370    0.66900    1.000
    O51      O        0.65783    0.87730    0.63257    1.000
    O52      O        0.25138    0.72300    0.87920    1.000
    O53      O        0.41593    0.94580    0.54274    1.000
    O54      O        0.66683    0.05140    0.53448    1.000
    O55      O        0.57971    0.82100    0.51735    1.000
    O56      O        0.49058    0.16570    0.56598    1.000
    Tm8      Tm       0.95216    0.53063    0.08413    1.000
    C120     C        0.09403    0.75010    0.20308    1.000
    C121     C        0.11725    0.70290    0.25600    1.000
    H57      H        0.09970    0.62140    0.26700    1.000
    C122     C        0.16638    0.77490    0.29325    1.000
    C123     C        0.19246    0.89290    0.27620    1.000
    H58      H        0.22850    0.94020    0.30080    1.000
    C124     C        0.16701    0.94380    0.22371    1.000
    C125     C        0.11780    0.87130    0.18731    1.000
    H59      H        0.10000    0.90410    0.15130    1.000
    C126     C        0.19040    0.07790    0.20910    1.000
    H60      H        0.24660    0.09650    0.22650    1.000
    H61      H        0.14820    0.13390    0.22740    1.000
    C127     C        0.19471    0.10980    0.14590    1.000
    C128     C        0.26450    0.07290    0.11281    1.000
    H62      H        0.30920    0.02640    0.13020    1.000
    C129     C        0.26953    0.10310    0.05457    1.000
    C130     C        0.20350    0.17130    0.02919    1.000
    H63      H        0.20550    0.18990    0.98930    1.000
    C131     C        0.13505    0.21170    0.06201    1.000
    C132     C        0.13078    0.18060    0.12003    1.000
    H64      H        0.08360    0.20790    0.14230    1.000
    C133     C        0.04285    0.67420    0.16140    1.000
    C134     C        0.19230    0.72190    0.35073    1.000
    C135     C        0.34498    0.06670    0.01886    1.000
    C136     C        0.06942    0.29530    0.03476    1.000
    O57      O        0.00888    0.72620    0.11940    1.000
    O58      O        0.03505    0.55630    0.16900    1.000
    O59      O        0.84217    0.62270    0.13257    1.000
    O60      O        0.24862    0.77700    0.37920    1.000
    O61      O        0.08407    0.55420    0.04274    1.000
    O62      O        0.83317    0.44860    0.03448    1.000
    O63      O        0.92029    0.67900    0.01735    1.000
    O64      O        0.00942    0.33430    0.06598    1.000
