# CIF file generated by openbabel 3.1.0, see https://openbabel.org
data_I
_chemical_name_common 'image0'
_cell_length_a 39.4912
_cell_length_b 23.7984
_cell_length_c 8.9131
_cell_angle_alpha 90
_cell_angle_beta 90
_cell_angle_gamma 90
_space_group_name_H-M_alt 'P 1'
_space_group_name_Hall 'P 1'
loop_
    _symmetry_equiv_pos_as_xyz
    x,y,z
loop_
    _atom_site_label
    _atom_site_type_symbol
    _atom_site_fract_x
    _atom_site_fract_y
    _atom_site_fract_z
    _atom_site_occupancy
    Zn1      Zn       0.02164    0.66373    0.58594    1.000
    Zn2      Zn       0.90027    0.83276    0.42846    1.000
    Zn3      Zn       0.14428    0.82962    0.41948    1.000
    C1       C        0.11932    0.72850    0.57760    1.000
    N1       N        0.97616    0.71070    0.53190    1.000
    N2       N        0.18584    0.88740    0.39260    1.000
    N3       N        0.35708    0.11400    0.10640    1.000
    N4       N        0.96841    0.75650    0.45730    1.000
    N5       N        0.93645    0.77000    0.48960    1.000
    N6       N        0.10747    0.76590    0.47710    1.000
    N7       N        0.06616    0.70820    0.52690    1.000
    N8       N        0.07551    0.75360    0.44740    1.000
    C2       C        0.92452    0.73180    0.58990    1.000
    C3       C        0.09349    0.69150    0.61100    1.000
    C4       C        0.95005    0.69350    0.61630    1.000
    C5       C        0.24460    0.90550    0.41330    1.000
    H1       H        0.26550    0.89500    0.45230    1.000
    C6       C        0.21619    0.87430    0.44440    1.000
    H2       H        0.21840    0.84250    0.50450    1.000
    C7       C        0.20990    0.96660    0.26800    1.000
    H3       H        0.20710    0.99800    0.20710    1.000
    N9       N        0.27226    0.98380    0.29780    1.000
    C8       C        0.24174    0.95240    0.32390    1.000
    C9       C        0.30040    0.04960    0.16990    1.000
    C10      C        0.35490    0.08370    0.23070    1.000
    H4       H        0.37300    0.08500    0.29780    1.000
    C11      C        0.33160    0.11170    0.01380    1.000
    H5       H        0.33280    0.13210    0.92500    1.000
    C12      C        0.32760    0.05070    0.26610    1.000
    H6       H        0.32750    0.02940    0.35360    1.000
    N10      N        0.26983    0.01760    0.19340    1.000
    C13      C        0.30260    0.08040    0.04130    1.000
    H7       H        0.28480    0.08050    0.97270    1.000
    C14      C        0.18270    0.93320    0.30480    1.000
    H8       H        0.16140    0.94250    0.26770    1.000
    O1       O        0.87320    0.78220    0.58410    1.000
    O2       O        0.17185    0.77380    0.55670    1.000
    O3       O        0.06057    0.61520    0.68880    1.000
    C15      C        0.08838    0.64050    0.70550    1.000
    C16      C        0.88904    0.74280    0.64750    1.000
    C17      C        0.15499    0.73710    0.62770    1.000
    O4       O        0.11159    0.62360    0.79210    1.000
    O5       O        0.16681    0.70950    0.73450    1.000
    O6       O        0.98248    0.61650    0.68960    1.000
    O7       O        0.87805    0.71440    0.75390    1.000
    C18      C        0.95465    0.64030    0.70420    1.000
    O8       O        0.93046    0.62280    0.78320    1.000
    N11      N        0.01890    0.61640    0.38620    1.000
    C19      C        0.01604    0.56090    0.39230    1.000
    H9       H        0.01720    0.54390    0.48610    1.000
    C20      C        0.01810    0.64040    0.25060    1.000
    H10      H        0.01980    0.67930    0.24540    1.000
    N12      N        0.13153    0.87560    0.62770    1.000
    C21      C        0.10670    0.91280    0.62990    1.000
    H11      H        0.09360    0.91710    0.54400    1.000
    C22      C        0.15020    0.86980    0.75160    1.000
    H12      H        0.16800    0.84410    0.75070    1.000
    N13      N        0.08426    0.11010    0.38830    1.000
    C23      C        0.01490    0.61110    0.11820    1.000
    H13      H        0.01580    0.62890    0.02540    1.000
    C24      C        0.14430    0.90050    0.88240    1.000
    H14      H        0.15760    0.89530    0.96720    1.000
    C25      C        0.11860    0.93790    0.88240    1.000
    N14      N        0.00810    0.52200    0.99200    1.000
    C26      C        0.09920    0.94570    0.75370    1.000
    H15      H        0.08180    0.97210    0.75100    1.000
    C27      C        0.08660    0.05580    0.40390    1.000
    H16      H        0.08670    0.04180    0.50130    1.000
    C28      C        0.01010    0.55300    0.13120    1.000
    C29      C        0.01140    0.52660    0.26910    1.000
    H17      H        0.00930    0.48780    0.27840    1.000
    C30      C        0.08100    0.12700    0.24920    1.000
    H18      H        0.07770    0.16520    0.23330    1.000
    N15      N        0.09071    0.00350    0.01350    1.000
    N16      N        0.11463    0.97130    0.01730    1.000
    C31      C        0.08790    0.03750    0.14690    1.000
    C32      C        0.08870    0.01740    0.28910    1.000
    H19      H        0.09070    0.97910    0.30840    1.000
    C33      C        0.08200    0.09300    0.12500    1.000
    H20      H        0.07870    0.10750    0.02920    1.000
    Zn4      Zn       0.47836    0.83627    0.58594    1.000
    Zn5      Zn       0.59973    0.66724    0.42846    1.000
    Zn6      Zn       0.35572    0.67038    0.41948    1.000
    C34      C        0.38068    0.77150    0.57760    1.000
    N17      N        0.52384    0.78930    0.53190    1.000
    N18      N        0.31416    0.61260    0.39260    1.000
    N19      N        0.14292    0.38600    0.10640    1.000
    N20      N        0.53159    0.74350    0.45730    1.000
    N21      N        0.56355    0.73000    0.48960    1.000
    N22      N        0.39253    0.73410    0.47710    1.000
    N23      N        0.43384    0.79180    0.52690    1.000
    N24      N        0.42449    0.74640    0.44740    1.000
    C35      C        0.57548    0.76820    0.58990    1.000
    C36      C        0.40651    0.80850    0.61100    1.000
    C37      C        0.54995    0.80650    0.61630    1.000
    C38      C        0.25540    0.59450    0.41330    1.000
    H21      H        0.23450    0.60500    0.45230    1.000
    C39      C        0.28381    0.62570    0.44440    1.000
    H22      H        0.28160    0.65750    0.50450    1.000
    C40      C        0.29010    0.53340    0.26800    1.000
    H23      H        0.29290    0.50200    0.20710    1.000
    N25      N        0.22774    0.51620    0.29780    1.000
    C41      C        0.25826    0.54760    0.32390    1.000
    C42      C        0.19960    0.45040    0.16990    1.000
    C43      C        0.14510    0.41630    0.23070    1.000
    H24      H        0.12700    0.41500    0.29780    1.000
    C44      C        0.16840    0.38830    0.01380    1.000
    H25      H        0.16720    0.36790    0.92500    1.000
    C45      C        0.17240    0.44930    0.26610    1.000
    H26      H        0.17250    0.47060    0.35360    1.000
    N26      N        0.23017    0.48240    0.19340    1.000
    C46      C        0.19740    0.41960    0.04130    1.000
    H27      H        0.21520    0.41950    0.97270    1.000
    C47      C        0.31730    0.56680    0.30480    1.000
    H28      H        0.33860    0.55750    0.26770    1.000
    O9       O        0.62680    0.71780    0.58410    1.000
    O10      O        0.32815    0.72620    0.55670    1.000
    O11      O        0.43943    0.88480    0.68880    1.000
    C48      C        0.41162    0.85950    0.70550    1.000
    C49      C        0.61096    0.75720    0.64750    1.000
    C50      C        0.34501    0.76290    0.62770    1.000
    O12      O        0.38841    0.87640    0.79210    1.000
    O13      O        0.33319    0.79050    0.73450    1.000
    O14      O        0.51752    0.88350    0.68960    1.000
    O15      O        0.62195    0.78560    0.75390    1.000
    C51      C        0.54535    0.85970    0.70420    1.000
    O16      O        0.56954    0.87720    0.78320    1.000
    N27      N        0.48110    0.88360    0.38620    1.000
    C52      C        0.48396    0.93910    0.39230    1.000
    H29      H        0.48280    0.95610    0.48610    1.000
    C53      C        0.48190    0.85960    0.25060    1.000
    H30      H        0.48020    0.82070    0.24540    1.000
    N28      N        0.36847    0.62440    0.62770    1.000
    C54      C        0.39330    0.58720    0.62990    1.000
    H31      H        0.40640    0.58290    0.54400    1.000
    C55      C        0.34980    0.63020    0.75160    1.000
    H32      H        0.33200    0.65590    0.75070    1.000
    N29      N        0.41574    0.38990    0.38830    1.000
    C56      C        0.48510    0.88890    0.11820    1.000
    H33      H        0.48420    0.87110    0.02540    1.000
    C57      C        0.35570    0.59950    0.88240    1.000
    H34      H        0.34240    0.60470    0.96720    1.000
    C58      C        0.38140    0.56210    0.88240    1.000
    N30      N        0.49190    0.97800    0.99200    1.000
    C59      C        0.40080    0.55430    0.75370    1.000
    H35      H        0.41820    0.52790    0.75100    1.000
    C60      C        0.41340    0.44420    0.40390    1.000
    H36      H        0.41330    0.45820    0.50130    1.000
    C61      C        0.48990    0.94700    0.13120    1.000
    C62      C        0.48860    0.97340    0.26910    1.000
    H37      H        0.49070    0.01220    0.27840    1.000
    C63      C        0.41900    0.37300    0.24920    1.000
    H38      H        0.42230    0.33480    0.23330    1.000
    N31      N        0.40929    0.49650    0.01350    1.000
    N32      N        0.38537    0.52870    0.01730    1.000
    C64      C        0.41210    0.46250    0.14690    1.000
    C65      C        0.41130    0.48260    0.28910    1.000
    H39      H        0.40930    0.52090    0.30840    1.000
    C66      C        0.41800    0.40700    0.12500    1.000
    H40      H        0.42130    0.39250    0.02920    1.000
    Zn7      Zn       0.97836    0.16373    0.91406    1.000
    Zn8      Zn       0.09973    0.33276    0.07154    1.000
    Zn9      Zn       0.85572    0.32962    0.08052    1.000
    C67      C        0.88068    0.22850    0.92240    1.000
    N33      N        0.02384    0.21070    0.96810    1.000
    N34      N        0.81416    0.38740    0.10740    1.000
    N35      N        0.64292    0.61400    0.39360    1.000
    N36      N        0.03159    0.25650    0.04270    1.000
    N37      N        0.06355    0.27000    0.01040    1.000
    N38      N        0.89253    0.26590    0.02290    1.000
    N39      N        0.93384    0.20820    0.97310    1.000
    N40      N        0.92449    0.25360    0.05260    1.000
    C68      C        0.07548    0.23180    0.91010    1.000
    C69      C        0.90651    0.19150    0.88900    1.000
    C70      C        0.04995    0.19350    0.88370    1.000
    C71      C        0.75540    0.40550    0.08670    1.000
    H41      H        0.73450    0.39500    0.04770    1.000
    C72      C        0.78381    0.37430    0.05560    1.000
    H42      H        0.78160    0.34250    0.99550    1.000
    C73      C        0.79010    0.46660    0.23200    1.000
    H43      H        0.79290    0.49800    0.29290    1.000
    N41      N        0.72774    0.48380    0.20220    1.000
    C74      C        0.75826    0.45240    0.17610    1.000
    C75      C        0.69960    0.54960    0.33010    1.000
    C76      C        0.64510    0.58370    0.26930    1.000
    H44      H        0.62700    0.58500    0.20220    1.000
    C77      C        0.66840    0.61170    0.48620    1.000
    H45      H        0.66720    0.63210    0.57500    1.000
    C78      C        0.67240    0.55070    0.23390    1.000
    H46      H        0.67250    0.52940    0.14640    1.000
    N42      N        0.73017    0.51760    0.30660    1.000
    C79      C        0.69740    0.58040    0.45870    1.000
    H47      H        0.71520    0.58050    0.52730    1.000
    C80      C        0.81730    0.43320    0.19520    1.000
    H48      H        0.83860    0.44250    0.23230    1.000
    O17      O        0.12680    0.28220    0.91590    1.000
    O18      O        0.82815    0.27380    0.94330    1.000
    O19      O        0.93943    0.11520    0.81120    1.000
    C81      C        0.91162    0.14050    0.79450    1.000
    C82      C        0.11096    0.24280    0.85250    1.000
    C83      C        0.84501    0.23710    0.87230    1.000
    O20      O        0.88841    0.12360    0.70790    1.000
    O21      O        0.83319    0.20950    0.76550    1.000
    O22      O        0.01752    0.11650    0.81040    1.000
    O23      O        0.12195    0.21440    0.74610    1.000
    C84      C        0.04535    0.14030    0.79580    1.000
    O24      O        0.06954    0.12280    0.71680    1.000
    N43      N        0.98110    0.11640    0.11380    1.000
    C85      C        0.98396    0.06090    0.10770    1.000
    H49      H        0.98280    0.04390    0.01390    1.000
    C86      C        0.98190    0.14040    0.24940    1.000
    H50      H        0.98020    0.17930    0.25460    1.000
    N44      N        0.86847    0.37560    0.87230    1.000
    C87      C        0.89330    0.41280    0.87010    1.000
    H51      H        0.90640    0.41710    0.95600    1.000
    C88      C        0.84980    0.36980    0.74840    1.000
    H52      H        0.83200    0.34410    0.74930    1.000
    N45      N        0.91574    0.61010    0.11170    1.000
    C89      C        0.98510    0.11110    0.38180    1.000
    H53      H        0.98420    0.12890    0.47460    1.000
    C90      C        0.85570    0.40050    0.61760    1.000
    H54      H        0.84240    0.39530    0.53280    1.000
    C91      C        0.88140    0.43790    0.61760    1.000
    N46      N        0.99190    0.02200    0.50800    1.000
    C92      C        0.90080    0.44570    0.74630    1.000
    H55      H        0.91820    0.47210    0.74900    1.000
    C93      C        0.91340    0.55580    0.09610    1.000
    H56      H        0.91330    0.54180    0.99870    1.000
    C94      C        0.98990    0.05300    0.36880    1.000
    C95      C        0.98860    0.02660    0.23090    1.000
    H57      H        0.99070    0.98780    0.22160    1.000
    C96      C        0.91900    0.62700    0.25080    1.000
    H58      H        0.92230    0.66520    0.26670    1.000
    N47      N        0.90929    0.50350    0.48650    1.000
    N48      N        0.88537    0.47130    0.48270    1.000
    C97      C        0.91210    0.53750    0.35310    1.000
    C98      C        0.91130    0.51740    0.21090    1.000
    H59      H        0.90930    0.47910    0.19160    1.000
    C99      C        0.91800    0.59300    0.37500    1.000
    H60      H        0.92130    0.60750    0.47080    1.000
    Zn10     Zn       0.52164    0.33627    0.91406    1.000
    Zn11     Zn       0.40027    0.16724    0.07154    1.000
    Zn12     Zn       0.64428    0.17038    0.08052    1.000
    C100     C        0.61932    0.27150    0.92240    1.000
    N49      N        0.47616    0.28930    0.96810    1.000
    N50      N        0.68584    0.11260    0.10740    1.000
    N51      N        0.85708    0.88600    0.39360    1.000
    N52      N        0.46841    0.24350    0.04270    1.000
    N53      N        0.43645    0.23000    0.01040    1.000
    N54      N        0.60747    0.23410    0.02290    1.000
    N55      N        0.56616    0.29180    0.97310    1.000
    N56      N        0.57551    0.24640    0.05260    1.000
    C101     C        0.42452    0.26820    0.91010    1.000
    C102     C        0.59349    0.30850    0.88900    1.000
    C103     C        0.45005    0.30650    0.88370    1.000
    C104     C        0.74460    0.09450    0.08670    1.000
    H61      H        0.76550    0.10500    0.04770    1.000
    C105     C        0.71619    0.12570    0.05560    1.000
    H62      H        0.71840    0.15750    0.99550    1.000
    C106     C        0.70990    0.03340    0.23200    1.000
    H63      H        0.70710    0.00200    0.29290    1.000
    N57      N        0.77226    0.01620    0.20220    1.000
    C107     C        0.74174    0.04760    0.17610    1.000
    C108     C        0.80040    0.95040    0.33010    1.000
    C109     C        0.85490    0.91630    0.26930    1.000
    H64      H        0.87300    0.91500    0.20220    1.000
    C110     C        0.83160    0.88830    0.48620    1.000
    H65      H        0.83280    0.86790    0.57500    1.000
    C111     C        0.82760    0.94930    0.23390    1.000
    H66      H        0.82750    0.97060    0.14640    1.000
    N58      N        0.76983    0.98240    0.30660    1.000
    C112     C        0.80260    0.91960    0.45870    1.000
    H67      H        0.78480    0.91950    0.52730    1.000
    C113     C        0.68270    0.06680    0.19520    1.000
    H68      H        0.66140    0.05750    0.23230    1.000
    O25      O        0.37320    0.21780    0.91590    1.000
    O26      O        0.67185    0.22620    0.94330    1.000
    O27      O        0.56057    0.38480    0.81120    1.000
    C114     C        0.58838    0.35950    0.79450    1.000
    C115     C        0.38904    0.25720    0.85250    1.000
    C116     C        0.65499    0.26290    0.87230    1.000
    O28      O        0.61159    0.37640    0.70790    1.000
    O29      O        0.66681    0.29050    0.76550    1.000
    O30      O        0.48248    0.38350    0.81040    1.000
    O31      O        0.37805    0.28560    0.74610    1.000
    C117     C        0.45465    0.35970    0.79580    1.000
    O32      O        0.43046    0.37720    0.71680    1.000
    N59      N        0.51890    0.38360    0.11380    1.000
    C118     C        0.51604    0.43910    0.10770    1.000
    H69      H        0.51720    0.45610    0.01390    1.000
    C119     C        0.51810    0.35960    0.24940    1.000
    H70      H        0.51980    0.32070    0.25460    1.000
    N60      N        0.63153    0.12440    0.87230    1.000
    C120     C        0.60670    0.08720    0.87010    1.000
    H71      H        0.59360    0.08290    0.95600    1.000
    C121     C        0.65020    0.13020    0.74840    1.000
    H72      H        0.66800    0.15590    0.74930    1.000
    N61      N        0.58426    0.88990    0.11170    1.000
    C122     C        0.51490    0.38890    0.38180    1.000
    H73      H        0.51580    0.37110    0.47460    1.000
    C123     C        0.64430    0.09950    0.61760    1.000
    H74      H        0.65760    0.10470    0.53280    1.000
    C124     C        0.61860    0.06210    0.61760    1.000
    N62      N        0.50810    0.47800    0.50800    1.000
    C125     C        0.59920    0.05430    0.74630    1.000
    H75      H        0.58180    0.02790    0.74900    1.000
    C126     C        0.58660    0.94420    0.09610    1.000
    H76      H        0.58670    0.95820    0.99870    1.000
    C127     C        0.51010    0.44700    0.36880    1.000
    C128     C        0.51140    0.47340    0.23090    1.000
    H77      H        0.50930    0.51220    0.22160    1.000
    C129     C        0.58100    0.87300    0.25080    1.000
    H78      H        0.57770    0.83480    0.26670    1.000
    N63      N        0.59071    0.99650    0.48650    1.000
    N64      N        0.61463    0.02870    0.48270    1.000
    C130     C        0.58790    0.96250    0.35310    1.000
    C131     C        0.58870    0.98260    0.21090    1.000
    H79      H        0.59070    0.02090    0.19160    1.000
    C132     C        0.58200    0.90700    0.37500    1.000
    H80      H        0.57870    0.89250    0.47080    1.000
    Zn13     Zn       0.97836    0.33627    0.41406    1.000
    Zn14     Zn       0.09973    0.16724    0.57154    1.000
    Zn15     Zn       0.85572    0.17038    0.58052    1.000
    C133     C        0.88068    0.27150    0.42240    1.000
    N65      N        0.02384    0.28930    0.46810    1.000
    N66      N        0.81416    0.11260    0.60740    1.000
    N67      N        0.64292    0.88600    0.89360    1.000
    N68      N        0.03159    0.24350    0.54270    1.000
    N69      N        0.06355    0.23000    0.51040    1.000
    N70      N        0.89253    0.23410    0.52290    1.000
    N71      N        0.93384    0.29180    0.47310    1.000
    N72      N        0.92449    0.24640    0.55260    1.000
    C134     C        0.07548    0.26820    0.41010    1.000
    C135     C        0.90651    0.30850    0.38900    1.000
    C136     C        0.04995    0.30650    0.38370    1.000
    C137     C        0.75540    0.09450    0.58670    1.000
    H81      H        0.73450    0.10500    0.54770    1.000
    C138     C        0.78381    0.12570    0.55560    1.000
    H82      H        0.78160    0.15750    0.49550    1.000
    C139     C        0.79010    0.03340    0.73200    1.000
    H83      H        0.79290    0.00200    0.79290    1.000
    N73      N        0.72774    0.01620    0.70220    1.000
    C140     C        0.75826    0.04760    0.67610    1.000
    C141     C        0.69960    0.95040    0.83010    1.000
    C142     C        0.64510    0.91630    0.76930    1.000
    H84      H        0.62700    0.91500    0.70220    1.000
    C143     C        0.66840    0.88830    0.98620    1.000
    H85      H        0.66720    0.86790    0.07500    1.000
    C144     C        0.67240    0.94930    0.73390    1.000
    H86      H        0.67250    0.97060    0.64640    1.000
    N74      N        0.73017    0.98240    0.80660    1.000
    C145     C        0.69740    0.91960    0.95870    1.000
    H87      H        0.71520    0.91950    0.02730    1.000
    C146     C        0.81730    0.06680    0.69520    1.000
    H88      H        0.83860    0.05750    0.73230    1.000
    O33      O        0.12680    0.21780    0.41590    1.000
    O34      O        0.82815    0.22620    0.44330    1.000
    O35      O        0.93943    0.38480    0.31120    1.000
    C147     C        0.91162    0.35950    0.29450    1.000
    C148     C        0.11096    0.25720    0.35250    1.000
    C149     C        0.84501    0.26290    0.37230    1.000
    O36      O        0.88841    0.37640    0.20790    1.000
    O37      O        0.83319    0.29050    0.26550    1.000
    O38      O        0.01752    0.38350    0.31040    1.000
    O39      O        0.12195    0.28560    0.24610    1.000
    C150     C        0.04535    0.35970    0.29580    1.000
    O40      O        0.06954    0.37720    0.21680    1.000
    N75      N        0.98110    0.38360    0.61380    1.000
    C151     C        0.98396    0.43910    0.60770    1.000
    H89      H        0.98280    0.45610    0.51390    1.000
    C152     C        0.98190    0.35960    0.74940    1.000
    H90      H        0.98020    0.32070    0.75460    1.000
    N76      N        0.86847    0.12440    0.37230    1.000
    C153     C        0.89330    0.08720    0.37010    1.000
    H91      H        0.90640    0.08290    0.45600    1.000
    C154     C        0.84980    0.13020    0.24840    1.000
    H92      H        0.83200    0.15590    0.24930    1.000
    N77      N        0.91574    0.88990    0.61170    1.000
    C155     C        0.98510    0.38890    0.88180    1.000
    H93      H        0.98420    0.37110    0.97460    1.000
    C156     C        0.85570    0.09950    0.11760    1.000
    H94      H        0.84240    0.10470    0.03280    1.000
    C157     C        0.88140    0.06210    0.11760    1.000
    N78      N        0.99190    0.47800    0.00800    1.000
    C158     C        0.90080    0.05430    0.24630    1.000
    H95      H        0.91820    0.02790    0.24900    1.000
    C159     C        0.91340    0.94420    0.59610    1.000
    H96      H        0.91330    0.95820    0.49870    1.000
    C160     C        0.98990    0.44700    0.86880    1.000
    C161     C        0.98860    0.47340    0.73090    1.000
    H97      H        0.99070    0.51220    0.72160    1.000
    C162     C        0.91900    0.87300    0.75080    1.000
    H98      H        0.92230    0.83480    0.76670    1.000
    N79      N        0.90929    0.99650    0.98650    1.000
    N80      N        0.88537    0.02870    0.98270    1.000
    C163     C        0.91210    0.96250    0.85310    1.000
    C164     C        0.91130    0.98260    0.71090    1.000
    H99      H        0.90930    0.02090    0.69160    1.000
    C165     C        0.91800    0.90700    0.87500    1.000
    H100     H        0.92130    0.89250    0.97080    1.000
    Zn16     Zn       0.52164    0.16373    0.41406    1.000
    Zn17     Zn       0.40027    0.33276    0.57154    1.000
    Zn18     Zn       0.64428    0.32962    0.58052    1.000
    C166     C        0.61932    0.22850    0.42240    1.000
    N81      N        0.47616    0.21070    0.46810    1.000
    N82      N        0.68584    0.38740    0.60740    1.000
    N83      N        0.85708    0.61400    0.89360    1.000
    N84      N        0.46841    0.25650    0.54270    1.000
    N85      N        0.43645    0.27000    0.51040    1.000
    N86      N        0.60747    0.26590    0.52290    1.000
    N87      N        0.56616    0.20820    0.47310    1.000
    N88      N        0.57551    0.25360    0.55260    1.000
    C167     C        0.42452    0.23180    0.41010    1.000
    C168     C        0.59349    0.19150    0.38900    1.000
    C169     C        0.45005    0.19350    0.38370    1.000
    C170     C        0.74460    0.40550    0.58670    1.000
    H101     H        0.76550    0.39500    0.54770    1.000
    C171     C        0.71619    0.37430    0.55560    1.000
    H102     H        0.71840    0.34250    0.49550    1.000
    C172     C        0.70990    0.46660    0.73200    1.000
    H103     H        0.70710    0.49800    0.79290    1.000
    N89      N        0.77226    0.48380    0.70220    1.000
    C173     C        0.74174    0.45240    0.67610    1.000
    C174     C        0.80040    0.54960    0.83010    1.000
    C175     C        0.85490    0.58370    0.76930    1.000
    H104     H        0.87300    0.58500    0.70220    1.000
    C176     C        0.83160    0.61170    0.98620    1.000
    H105     H        0.83280    0.63210    0.07500    1.000
    C177     C        0.82760    0.55070    0.73390    1.000
    H106     H        0.82750    0.52940    0.64640    1.000
    N90      N        0.76983    0.51760    0.80660    1.000
    C178     C        0.80260    0.58040    0.95870    1.000
    H107     H        0.78480    0.58050    0.02730    1.000
    C179     C        0.68270    0.43320    0.69520    1.000
    H108     H        0.66140    0.44250    0.73230    1.000
    O41      O        0.37320    0.28220    0.41590    1.000
    O42      O        0.67185    0.27380    0.44330    1.000
    O43      O        0.56057    0.11520    0.31120    1.000
    C180     C        0.58838    0.14050    0.29450    1.000
    C181     C        0.38904    0.24280    0.35250    1.000
    C182     C        0.65499    0.23710    0.37230    1.000
    O44      O        0.61159    0.12360    0.20790    1.000
    O45      O        0.66681    0.20950    0.26550    1.000
    O46      O        0.48248    0.11650    0.31040    1.000
    O47      O        0.37805    0.21440    0.24610    1.000
    C183     C        0.45465    0.14030    0.29580    1.000
    O48      O        0.43046    0.12280    0.21680    1.000
    N91      N        0.51890    0.11640    0.61380    1.000
    C184     C        0.51604    0.06090    0.60770    1.000
    H109     H        0.51720    0.04390    0.51390    1.000
    C185     C        0.51810    0.14040    0.74940    1.000
    H110     H        0.51980    0.17930    0.75460    1.000
    N92      N        0.63153    0.37560    0.37230    1.000
    C186     C        0.60670    0.41280    0.37010    1.000
    H111     H        0.59360    0.41710    0.45600    1.000
    C187     C        0.65020    0.36980    0.24840    1.000
    H112     H        0.66800    0.34410    0.24930    1.000
    N93      N        0.58426    0.61010    0.61170    1.000
    C188     C        0.51490    0.11110    0.88180    1.000
    H113     H        0.51580    0.12890    0.97460    1.000
    C189     C        0.64430    0.40050    0.11760    1.000
    H114     H        0.65760    0.39530    0.03280    1.000
    C190     C        0.61860    0.43790    0.11760    1.000
    N94      N        0.50810    0.02200    0.00800    1.000
    C191     C        0.59920    0.44570    0.24630    1.000
    H115     H        0.58180    0.47210    0.24900    1.000
    C192     C        0.58660    0.55580    0.59610    1.000
    H116     H        0.58670    0.54180    0.49870    1.000
    C193     C        0.51010    0.05300    0.86880    1.000
    C194     C        0.51140    0.02660    0.73090    1.000
    H117     H        0.50930    0.98780    0.72160    1.000
    C195     C        0.58100    0.62700    0.75080    1.000
    H118     H        0.57770    0.66520    0.76670    1.000
    N95      N        0.59071    0.50350    0.98650    1.000
    N96      N        0.61463    0.47130    0.98270    1.000
    C196     C        0.58790    0.53750    0.85310    1.000
    C197     C        0.58870    0.51740    0.71090    1.000
    H119     H        0.59070    0.47910    0.69160    1.000
    C198     C        0.58200    0.59300    0.87500    1.000
    H120     H        0.57870    0.60750    0.97080    1.000
    Zn19     Zn       0.02164    0.83627    0.08594    1.000
    Zn20     Zn       0.90027    0.66724    0.92846    1.000
    Zn21     Zn       0.14428    0.67038    0.91948    1.000
    C199     C        0.11932    0.77150    0.07760    1.000
    N97      N        0.97616    0.78930    0.03190    1.000
    N98      N        0.18584    0.61260    0.89260    1.000
    N99      N        0.35708    0.38600    0.60640    1.000
    N100     N        0.96841    0.74350    0.95730    1.000
    N101     N        0.93645    0.73000    0.98960    1.000
    N102     N        0.10747    0.73410    0.97710    1.000
    N103     N        0.06616    0.79180    0.02690    1.000
    N104     N        0.07551    0.74640    0.94740    1.000
    C200     C        0.92452    0.76820    0.08990    1.000
    C201     C        0.09349    0.80850    0.11100    1.000
    C202     C        0.95005    0.80650    0.11630    1.000
    C203     C        0.24460    0.59450    0.91330    1.000
    H121     H        0.26550    0.60500    0.95230    1.000
    C204     C        0.21619    0.62570    0.94440    1.000
    H122     H        0.21840    0.65750    0.00450    1.000
    C205     C        0.20990    0.53340    0.76800    1.000
    H123     H        0.20710    0.50200    0.70710    1.000
    N105     N        0.27226    0.51620    0.79780    1.000
    C206     C        0.24174    0.54760    0.82390    1.000
    C207     C        0.30040    0.45040    0.66990    1.000
    C208     C        0.35490    0.41630    0.73070    1.000
    H124     H        0.37300    0.41500    0.79780    1.000
    C209     C        0.33160    0.38830    0.51380    1.000
    H125     H        0.33280    0.36790    0.42500    1.000
    C210     C        0.32760    0.44930    0.76610    1.000
    H126     H        0.32750    0.47060    0.85360    1.000
    N106     N        0.26983    0.48240    0.69340    1.000
    C211     C        0.30260    0.41960    0.54130    1.000
    H127     H        0.28480    0.41950    0.47270    1.000
    C212     C        0.18270    0.56680    0.80480    1.000
    H128     H        0.16140    0.55750    0.76770    1.000
    O49      O        0.87320    0.71780    0.08410    1.000
    O50      O        0.17185    0.72620    0.05670    1.000
    O51      O        0.06057    0.88480    0.18880    1.000
    C213     C        0.08838    0.85950    0.20550    1.000
    C214     C        0.88904    0.75720    0.14750    1.000
    C215     C        0.15499    0.76290    0.12770    1.000
    O52      O        0.11159    0.87640    0.29210    1.000
    O53      O        0.16681    0.79050    0.23450    1.000
    O54      O        0.98248    0.88350    0.18960    1.000
    O55      O        0.87805    0.78560    0.25390    1.000
    C216     C        0.95465    0.85970    0.20420    1.000
    O56      O        0.93046    0.87720    0.28320    1.000
    N107     N        0.01890    0.88360    0.88620    1.000
    C217     C        0.01604    0.93910    0.89230    1.000
    H129     H        0.01720    0.95610    0.98610    1.000
    C218     C        0.01810    0.85960    0.75060    1.000
    H130     H        0.01980    0.82070    0.74540    1.000
    N108     N        0.13153    0.62440    0.12770    1.000
    C219     C        0.10670    0.58720    0.12990    1.000
    H131     H        0.09360    0.58290    0.04400    1.000
    C220     C        0.15020    0.63020    0.25160    1.000
    H132     H        0.16800    0.65590    0.25070    1.000
    N109     N        0.08426    0.38990    0.88830    1.000
    C221     C        0.01490    0.88890    0.61820    1.000
    H133     H        0.01580    0.87110    0.52540    1.000
    C222     C        0.14430    0.59950    0.38240    1.000
    H134     H        0.15760    0.60470    0.46720    1.000
    C223     C        0.11860    0.56210    0.38240    1.000
    N110     N        0.00810    0.97800    0.49200    1.000
    C224     C        0.09920    0.55430    0.25370    1.000
    H135     H        0.08180    0.52790    0.25100    1.000
    C225     C        0.08660    0.44420    0.90390    1.000
    H136     H        0.08670    0.45820    0.00130    1.000
    C226     C        0.01010    0.94700    0.63120    1.000
    C227     C        0.01140    0.97340    0.76910    1.000
    H137     H        0.00930    0.01220    0.77840    1.000
    C228     C        0.08100    0.37300    0.74920    1.000
    H138     H        0.07770    0.33480    0.73330    1.000
    N111     N        0.09071    0.49650    0.51350    1.000
    N112     N        0.11463    0.52870    0.51730    1.000
    C229     C        0.08790    0.46250    0.64690    1.000
    C230     C        0.08870    0.48260    0.78910    1.000
    H139     H        0.09070    0.52090    0.80840    1.000
    C231     C        0.08200    0.40700    0.62500    1.000
    H140     H        0.07870    0.39250    0.52920    1.000
    Zn22     Zn       0.47836    0.66373    0.08594    1.000
    Zn23     Zn       0.59973    0.83276    0.92846    1.000
    Zn24     Zn       0.35572    0.82962    0.91948    1.000
    C232     C        0.38068    0.72850    0.07760    1.000
    N113     N        0.52384    0.71070    0.03190    1.000
    N114     N        0.31416    0.88740    0.89260    1.000
    N115     N        0.14292    0.11400    0.60640    1.000
    N116     N        0.53159    0.75650    0.95730    1.000
    N117     N        0.56355    0.77000    0.98960    1.000
    N118     N        0.39253    0.76590    0.97710    1.000
    N119     N        0.43384    0.70820    0.02690    1.000
    N120     N        0.42449    0.75360    0.94740    1.000
    C233     C        0.57548    0.73180    0.08990    1.000
    C234     C        0.40651    0.69150    0.11100    1.000
    C235     C        0.54995    0.69350    0.11630    1.000
    C236     C        0.25540    0.90550    0.91330    1.000
    H141     H        0.23450    0.89500    0.95230    1.000
    C237     C        0.28381    0.87430    0.94440    1.000
    H142     H        0.28160    0.84250    0.00450    1.000
    C238     C        0.29010    0.96660    0.76800    1.000
    H143     H        0.29290    0.99800    0.70710    1.000
    N121     N        0.22774    0.98380    0.79780    1.000
    C239     C        0.25826    0.95240    0.82390    1.000
    C240     C        0.19960    0.04960    0.66990    1.000
    C241     C        0.14510    0.08370    0.73070    1.000
    H144     H        0.12700    0.08500    0.79780    1.000
    C242     C        0.16840    0.11170    0.51380    1.000
    H145     H        0.16720    0.13210    0.42500    1.000
    C243     C        0.17240    0.05070    0.76610    1.000
    H146     H        0.17250    0.02940    0.85360    1.000
    N122     N        0.23017    0.01760    0.69340    1.000
    C244     C        0.19740    0.08040    0.54130    1.000
    H147     H        0.21520    0.08050    0.47270    1.000
    C245     C        0.31730    0.93320    0.80480    1.000
    H148     H        0.33860    0.94250    0.76770    1.000
    O57      O        0.62680    0.78220    0.08410    1.000
    O58      O        0.32815    0.77380    0.05670    1.000
    O59      O        0.43943    0.61520    0.18880    1.000
    C246     C        0.41162    0.64050    0.20550    1.000
    C247     C        0.61096    0.74280    0.14750    1.000
    C248     C        0.34501    0.73710    0.12770    1.000
    O60      O        0.38841    0.62360    0.29210    1.000
    O61      O        0.33319    0.70950    0.23450    1.000
    O62      O        0.51752    0.61650    0.18960    1.000
    O63      O        0.62195    0.71440    0.25390    1.000
    C249     C        0.54535    0.64030    0.20420    1.000
    O64      O        0.56954    0.62280    0.28320    1.000
    N123     N        0.48110    0.61640    0.88620    1.000
    C250     C        0.48396    0.56090    0.89230    1.000
    H149     H        0.48280    0.54390    0.98610    1.000
    C251     C        0.48190    0.64040    0.75060    1.000
    H150     H        0.48020    0.67930    0.74540    1.000
    N124     N        0.36847    0.87560    0.12770    1.000
    C252     C        0.39330    0.91280    0.12990    1.000
    H151     H        0.40640    0.91710    0.04400    1.000
    C253     C        0.34980    0.86980    0.25160    1.000
    H152     H        0.33200    0.84410    0.25070    1.000
    N125     N        0.41574    0.11010    0.88830    1.000
    C254     C        0.48510    0.61110    0.61820    1.000
    H153     H        0.48420    0.62890    0.52540    1.000
    C255     C        0.35570    0.90050    0.38240    1.000
    H154     H        0.34240    0.89530    0.46720    1.000
    C256     C        0.38140    0.93790    0.38240    1.000
    N126     N        0.49190    0.52200    0.49200    1.000
    C257     C        0.40080    0.94570    0.25370    1.000
    H155     H        0.41820    0.97210    0.25100    1.000
    C258     C        0.41340    0.05580    0.90390    1.000
    H156     H        0.41330    0.04180    0.00130    1.000
    C259     C        0.48990    0.55300    0.63120    1.000
    C260     C        0.48860    0.52660    0.76910    1.000
    H157     H        0.49070    0.48780    0.77840    1.000
    C261     C        0.41900    0.12700    0.74920    1.000
    H158     H        0.42230    0.16520    0.73330    1.000
    N127     N        0.40929    0.00350    0.51350    1.000
    N128     N        0.38537    0.97130    0.51730    1.000
    C262     C        0.41210    0.03750    0.64690    1.000
    C263     C        0.41130    0.01740    0.78910    1.000
    H159     H        0.40930    0.97910    0.80840    1.000
    C264     C        0.41800    0.09300    0.62500    1.000
    H160     H        0.42130    0.10750    0.52920    1.000
