# CIF file generated by openbabel 3.1.0, see https://openbabel.org
data_I
_chemical_name_common 'image0'
_cell_length_a 26.867
_cell_length_b 20.084
_cell_length_c 13.099
_cell_angle_alpha 90
_cell_angle_beta 90
_cell_angle_gamma 90
_space_group_name_H-M_alt 'P 1'
_space_group_name_Hall 'P 1'
loop_
    _symmetry_equiv_pos_as_xyz
    x,y,z
loop_
    _atom_site_label
    _atom_site_type_symbol
    _atom_site_fract_x
    _atom_site_fract_y
    _atom_site_fract_z
    _atom_site_occupancy
    W1       W        0.65363    0.16622    0.52874    1.000
    W2       W        0.76624    0.16667    0.36822    1.000
    W3       W        0.86864    0.34216    0.68514    1.000
    W4       W        0.76589    0.07493    0.61145    1.000
    W5       W        0.76670    0.15837    0.83299    1.000
    Co1      Co       0.74025    0.89045    0.60690    1.000
    O1       O        0.83720    0.18370    0.35950    1.000
    O2       O        0.62690    0.18280    0.66320    1.000
    O3       O        0.70100    0.18500    0.79920    1.000
    O4       O        0.75570    0.07800    0.75680    1.000
    O5       O        0.87620    0.31740    0.54380    1.000
    O6       O        0.75940    0.11320    0.26760    1.000
    O7       O        0.69920    0.10600    0.59530    1.000
    O8       O        0.77840    0.10600    0.47720    1.000
    O9       O        0.78330    0.31580    0.66200    1.000
    O10      O        0.83710    0.35490    0.81460    1.000
    O11      O        0.69940    0.17060    0.41960    1.000
    O12      O        0.83640    0.42180    0.63840    1.000
    O13      O        0.75790    0.99120    0.59330    1.000
    N1       N        0.81970    0.87760    0.61140    1.000
    N2       N        0.90030    0.88410    0.65380    1.000
    N3       N        0.08010    0.92960    0.85980    1.000
    C1       C        0.02760    0.85850    0.75600    1.000
    H1       H        0.05270    0.82680    0.75060    1.000
    C2       C        0.09010    0.96890    0.94400    1.000
    H2       H        0.06720    0.99450    0.98040    1.000
    C3       C        0.03520    0.91740    0.80980    1.000
    C4       C        0.94460    0.89530    0.70730    1.000
    C5       C        0.89510    0.84390    0.56240    1.000
    H3       H        0.92050    0.82270    0.52660    1.000
    C6       C        0.84770    0.84350    0.54050    1.000
    H4       H        0.83440    0.82250    0.48340    1.000
    C7       C        0.85280    0.90230    0.67600    1.000
    H5       H        0.84440    0.92930    0.73160    1.000
    C8       C        0.98000    0.84850    0.71100    1.000
    H6       H        0.97310    0.80710    0.68220    1.000
    C9       C        0.95240    0.95660    0.75230    1.000
    H7       H        0.92880    0.99040    0.74750    1.000
    C10      C        0.13810    0.96330    0.96470    1.000
    H8       H        0.15460    0.98620    0.01630    1.000
    C11      C        0.99710    0.96600    0.80600    1.000
    H9       H        0.00200    0.00600    0.83960    1.000
    C12      C        0.12640    0.90060    0.83230    1.000
    H10      H        0.13160    0.87330    0.77610    1.000
    N4       N        0.16070    0.91800    0.89780    1.000
    O14      O        0.75900    0.12810    0.95390    1.000
    W6       W        0.84637    0.83378    0.02874    1.000
    W7       W        0.73376    0.83333    0.86822    1.000
    W8       W        0.63136    0.65784    0.18514    1.000
    W9       W        0.73411    0.92507    0.11145    1.000
    W10      W        0.73330    0.84163    0.33299    1.000
    Co2      Co       0.75975    0.10955    0.10690    1.000
    O15      O        0.66280    0.81630    0.85950    1.000
    O16      O        0.87310    0.81720    0.16320    1.000
    O17      O        0.79900    0.81500    0.29920    1.000
    O18      O        0.74430    0.92200    0.25680    1.000
    O19      O        0.62380    0.68260    0.04380    1.000
    O20      O        0.74060    0.88680    0.76760    1.000
    O21      O        0.80080    0.89400    0.09530    1.000
    O22      O        0.72160    0.89400    0.97720    1.000
    O23      O        0.71670    0.68420    0.16200    1.000
    O24      O        0.66290    0.64510    0.31460    1.000
    O25      O        0.80060    0.82940    0.91960    1.000
    O26      O        0.66360    0.57820    0.13840    1.000
    O27      O        0.74210    0.00880    0.09330    1.000
    N5       N        0.68030    0.12240    0.11140    1.000
    N6       N        0.59970    0.11590    0.15380    1.000
    N7       N        0.41990    0.07040    0.35980    1.000
    C13      C        0.47240    0.14150    0.25600    1.000
    H11      H        0.44730    0.17320    0.25060    1.000
    C14      C        0.40990    0.03110    0.44400    1.000
    H12      H        0.43280    0.00550    0.48040    1.000
    C15      C        0.46480    0.08260    0.30980    1.000
    C16      C        0.55540    0.10470    0.20730    1.000
    C17      C        0.60490    0.15610    0.06240    1.000
    H13      H        0.57950    0.17730    0.02660    1.000
    C18      C        0.65230    0.15650    0.04050    1.000
    H14      H        0.66560    0.17750    0.98340    1.000
    C19      C        0.64720    0.09770    0.17600    1.000
    H15      H        0.65560    0.07070    0.23160    1.000
    C20      C        0.52000    0.15150    0.21100    1.000
    H16      H        0.52690    0.19290    0.18220    1.000
    C21      C        0.54760    0.04340    0.25230    1.000
    H17      H        0.57120    0.00960    0.24750    1.000
    C22      C        0.36190    0.03670    0.46470    1.000
    H18      H        0.34540    0.01380    0.51630    1.000
    C23      C        0.50290    0.03400    0.30600    1.000
    H19      H        0.49800    0.99400    0.33960    1.000
    C24      C        0.37360    0.09940    0.33230    1.000
    H20      H        0.36840    0.12670    0.27610    1.000
    N8       N        0.33930    0.08200    0.39780    1.000
    O28      O        0.74100    0.87190    0.45390    1.000
    W11      W        0.34637    0.66622    0.47126    1.000
    W12      W        0.23376    0.66667    0.63178    1.000
    W13      W        0.13136    0.84216    0.31486    1.000
    W14      W        0.23411    0.57493    0.38855    1.000
    W15      W        0.23330    0.65837    0.16701    1.000
    Co3      Co       0.25975    0.39045    0.39310    1.000
    O29      O        0.16280    0.68370    0.64050    1.000
    O30      O        0.37310    0.68280    0.33680    1.000
    O31      O        0.29900    0.68500    0.20080    1.000
    O32      O        0.24430    0.57800    0.24320    1.000
    O33      O        0.12380    0.81740    0.45620    1.000
    O34      O        0.24060    0.61320    0.73240    1.000
    O35      O        0.30080    0.60600    0.40470    1.000
    O36      O        0.22160    0.60600    0.52280    1.000
    O37      O        0.21670    0.81580    0.33800    1.000
    O38      O        0.16290    0.85490    0.18540    1.000
    O39      O        0.30060    0.67060    0.58040    1.000
    O40      O        0.16360    0.92180    0.36160    1.000
    O41      O        0.24210    0.49120    0.40670    1.000
    N9       N        0.18030    0.37760    0.38860    1.000
    N10      N        0.09970    0.38410    0.34620    1.000
    N11      N        0.91990    0.42960    0.14020    1.000
    C25      C        0.97240    0.35850    0.24400    1.000
    H21      H        0.94730    0.32680    0.24940    1.000
    C26      C        0.90990    0.46890    0.05600    1.000
    H22      H        0.93280    0.49450    0.01960    1.000
    C27      C        0.96480    0.41740    0.19020    1.000
    C28      C        0.05540    0.39530    0.29270    1.000
    C29      C        0.10490    0.34390    0.43760    1.000
    H23      H        0.07950    0.32270    0.47340    1.000
    C30      C        0.15230    0.34350    0.45950    1.000
    H24      H        0.16560    0.32250    0.51660    1.000
    C31      C        0.14720    0.40230    0.32400    1.000
    H25      H        0.15560    0.42930    0.26840    1.000
    C32      C        0.02000    0.34850    0.28900    1.000
    H26      H        0.02690    0.30710    0.31780    1.000
    C33      C        0.04760    0.45660    0.24770    1.000
    H27      H        0.07120    0.49040    0.25250    1.000
    C34      C        0.86190    0.46330    0.03530    1.000
    H28      H        0.84540    0.48620    0.98370    1.000
    C35      C        0.00290    0.46600    0.19400    1.000
    H29      H        0.99800    0.50600    0.16040    1.000
    C36      C        0.87360    0.40060    0.16770    1.000
    H30      H        0.86840    0.37330    0.22390    1.000
    N12      N        0.83930    0.41800    0.10220    1.000
    O42      O        0.24100    0.62810    0.04610    1.000
    W16      W        0.15363    0.33378    0.97126    1.000
    W17      W        0.26624    0.33333    0.13178    1.000
    W18      W        0.36864    0.15784    0.81486    1.000
    W19      W        0.26589    0.42507    0.88855    1.000
    W20      W        0.26670    0.34163    0.66701    1.000
    Co4      Co       0.24025    0.60955    0.89310    1.000
    O43      O        0.33720    0.31630    0.14050    1.000
    O44      O        0.12690    0.31720    0.83680    1.000
    O45      O        0.20100    0.31500    0.70080    1.000
    O46      O        0.25570    0.42200    0.74320    1.000
    O47      O        0.37620    0.18260    0.95620    1.000
    O48      O        0.25940    0.38680    0.23240    1.000
    O49      O        0.19920    0.39400    0.90470    1.000
    O50      O        0.27840    0.39400    0.02280    1.000
    O51      O        0.28330    0.18420    0.83800    1.000
    O52      O        0.33710    0.14510    0.68540    1.000
    O53      O        0.19940    0.32940    0.08040    1.000
    O54      O        0.33640    0.07820    0.86160    1.000
    O55      O        0.25790    0.50880    0.90670    1.000
    N13      N        0.31970    0.62240    0.88860    1.000
    N14      N        0.40030    0.61590    0.84620    1.000
    N15      N        0.58010    0.57040    0.64020    1.000
    C37      C        0.52760    0.64150    0.74400    1.000
    H31      H        0.55270    0.67320    0.74940    1.000
    C38      C        0.59010    0.53110    0.55600    1.000
    H32      H        0.56720    0.50550    0.51960    1.000
    C39      C        0.53520    0.58260    0.69020    1.000
    C40      C        0.44460    0.60470    0.79270    1.000
    C41      C        0.39510    0.65610    0.93760    1.000
    H33      H        0.42050    0.67730    0.97340    1.000
    C42      C        0.34770    0.65650    0.95950    1.000
    H34      H        0.33440    0.67750    0.01660    1.000
    C43      C        0.35280    0.59770    0.82400    1.000
    H35      H        0.34440    0.57070    0.76840    1.000
    C44      C        0.48000    0.65150    0.78900    1.000
    H36      H        0.47310    0.69290    0.81780    1.000
    C45      C        0.45240    0.54340    0.74770    1.000
    H37      H        0.42880    0.50960    0.75250    1.000
    C46      C        0.63810    0.53670    0.53530    1.000
    H38      H        0.65460    0.51380    0.48370    1.000
    C47      C        0.49710    0.53400    0.69400    1.000
    H39      H        0.50200    0.49400    0.66040    1.000
    C48      C        0.62640    0.59940    0.66770    1.000
    H40      H        0.63160    0.62670    0.72390    1.000
    N16      N        0.66070    0.58200    0.60220    1.000
    O56      O        0.25900    0.37190    0.54610    1.000
    W21      W        0.34637    0.83378    0.47126    1.000
    W22      W        0.23376    0.83333    0.63178    1.000
    W23      W        0.13136    0.65784    0.31486    1.000
    W24      W        0.23411    0.92507    0.38855    1.000
    W25      W        0.23330    0.84163    0.16701    1.000
    Co5      Co       0.25975    0.10955    0.39310    1.000
    O57      O        0.16280    0.81630    0.64050    1.000
    O58      O        0.37310    0.81720    0.33680    1.000
    O59      O        0.29900    0.81500    0.20080    1.000
    O60      O        0.24430    0.92200    0.24320    1.000
    O61      O        0.12380    0.68260    0.45620    1.000
    O62      O        0.24060    0.88680    0.73240    1.000
    O63      O        0.30080    0.89400    0.40470    1.000
    O64      O        0.22160    0.89400    0.52280    1.000
    O65      O        0.21670    0.68420    0.33800    1.000
    O66      O        0.16290    0.64510    0.18540    1.000
    O67      O        0.30060    0.82940    0.58040    1.000
    O68      O        0.16360    0.57820    0.36160    1.000
    O69      O        0.24210    0.00880    0.40670    1.000
    N17      N        0.18030    0.12240    0.38860    1.000
    N18      N        0.09970    0.11590    0.34620    1.000
    N19      N        0.91990    0.07040    0.14020    1.000
    C49      C        0.97240    0.14150    0.24400    1.000
    H41      H        0.94730    0.17320    0.24940    1.000
    C50      C        0.90990    0.03110    0.05600    1.000
    H42      H        0.93280    0.00550    0.01960    1.000
    C51      C        0.96480    0.08260    0.19020    1.000
    C52      C        0.05540    0.10470    0.29270    1.000
    C53      C        0.10490    0.15610    0.43760    1.000
    H43      H        0.07950    0.17730    0.47340    1.000
    C54      C        0.15230    0.15650    0.45950    1.000
    H44      H        0.16560    0.17750    0.51660    1.000
    C55      C        0.14720    0.09770    0.32400    1.000
    H45      H        0.15560    0.07070    0.26840    1.000
    C56      C        0.02000    0.15150    0.28900    1.000
    H46      H        0.02690    0.19290    0.31780    1.000
    C57      C        0.04760    0.04340    0.24770    1.000
    H47      H        0.07120    0.00960    0.25250    1.000
    C58      C        0.86190    0.03670    0.03530    1.000
    H48      H        0.84540    0.01380    0.98370    1.000
    C59      C        0.00290    0.03400    0.19400    1.000
    H49      H        0.99800    0.99400    0.16040    1.000
    C60      C        0.87360    0.09940    0.16770    1.000
    H50      H        0.86840    0.12670    0.22390    1.000
    N20      N        0.83930    0.08200    0.10220    1.000
    O70      O        0.24100    0.87190    0.04610    1.000
    W26      W        0.15363    0.16622    0.97126    1.000
    W27      W        0.26624    0.16667    0.13178    1.000
    W28      W        0.36864    0.34216    0.81486    1.000
    W29      W        0.26589    0.07493    0.88855    1.000
    W30      W        0.26670    0.15837    0.66701    1.000
    Co6      Co       0.24025    0.89045    0.89310    1.000
    O71      O        0.33720    0.18370    0.14050    1.000
    O72      O        0.12690    0.18280    0.83680    1.000
    O73      O        0.20100    0.18500    0.70080    1.000
    O74      O        0.25570    0.07800    0.74320    1.000
    O75      O        0.37620    0.31740    0.95620    1.000
    O76      O        0.25940    0.11320    0.23240    1.000
    O77      O        0.19920    0.10600    0.90470    1.000
    O78      O        0.27840    0.10600    0.02280    1.000
    O79      O        0.28330    0.31580    0.83800    1.000
    O80      O        0.33710    0.35490    0.68540    1.000
    O81      O        0.19940    0.17060    0.08040    1.000
    O82      O        0.33640    0.42180    0.86160    1.000
    O83      O        0.25790    0.99120    0.90670    1.000
    N21      N        0.31970    0.87760    0.88860    1.000
    N22      N        0.40030    0.88410    0.84620    1.000
    N23      N        0.58010    0.92960    0.64020    1.000
    C61      C        0.52760    0.85850    0.74400    1.000
    H51      H        0.55270    0.82680    0.74940    1.000
    C62      C        0.59010    0.96890    0.55600    1.000
    H52      H        0.56720    0.99450    0.51960    1.000
    C63      C        0.53520    0.91740    0.69020    1.000
    C64      C        0.44460    0.89530    0.79270    1.000
    C65      C        0.39510    0.84390    0.93760    1.000
    H53      H        0.42050    0.82270    0.97340    1.000
    C66      C        0.34770    0.84350    0.95950    1.000
    H54      H        0.33440    0.82250    0.01660    1.000
    C67      C        0.35280    0.90230    0.82400    1.000
    H55      H        0.34440    0.92930    0.76840    1.000
    C68      C        0.48000    0.84850    0.78900    1.000
    H56      H        0.47310    0.80710    0.81780    1.000
    C69      C        0.45240    0.95660    0.74770    1.000
    H57      H        0.42880    0.99040    0.75250    1.000
    C70      C        0.63810    0.96330    0.53530    1.000
    H58      H        0.65460    0.98620    0.48370    1.000
    C71      C        0.49710    0.96600    0.69400    1.000
    H59      H        0.50200    0.00600    0.66040    1.000
    C72      C        0.62640    0.90060    0.66770    1.000
    H60      H        0.63160    0.87330    0.72390    1.000
    N24      N        0.66070    0.91800    0.60220    1.000
    O84      O        0.25900    0.12810    0.54610    1.000
    W31      W        0.65363    0.33378    0.52874    1.000
    W32      W        0.76624    0.33333    0.36822    1.000
    W33      W        0.86864    0.15784    0.68514    1.000
    W34      W        0.76589    0.42507    0.61145    1.000
    W35      W        0.76670    0.34163    0.83299    1.000
    Co7      Co       0.74025    0.60955    0.60690    1.000
    O85      O        0.83720    0.31630    0.35950    1.000
    O86      O        0.62690    0.31720    0.66320    1.000
    O87      O        0.70100    0.31500    0.79920    1.000
    O88      O        0.75570    0.42200    0.75680    1.000
    O89      O        0.87620    0.18260    0.54380    1.000
    O90      O        0.75940    0.38680    0.26760    1.000
    O91      O        0.69920    0.39400    0.59530    1.000
    O92      O        0.77840    0.39400    0.47720    1.000
    O93      O        0.78330    0.18420    0.66200    1.000
    O94      O        0.83710    0.14510    0.81460    1.000
    O95      O        0.69940    0.32940    0.41960    1.000
    O96      O        0.83640    0.07820    0.63840    1.000
    O97      O        0.75790    0.50880    0.59330    1.000
    N25      N        0.81970    0.62240    0.61140    1.000
    N26      N        0.90030    0.61590    0.65380    1.000
    N27      N        0.08010    0.57040    0.85980    1.000
    C73      C        0.02760    0.64150    0.75600    1.000
    H61      H        0.05270    0.67320    0.75060    1.000
    C74      C        0.09010    0.53110    0.94400    1.000
    H62      H        0.06720    0.50550    0.98040    1.000
    C75      C        0.03520    0.58260    0.80980    1.000
    C76      C        0.94460    0.60470    0.70730    1.000
    C77      C        0.89510    0.65610    0.56240    1.000
    H63      H        0.92050    0.67730    0.52660    1.000
    C78      C        0.84770    0.65650    0.54050    1.000
    H64      H        0.83440    0.67750    0.48340    1.000
    C79      C        0.85280    0.59770    0.67600    1.000
    H65      H        0.84440    0.57070    0.73160    1.000
    C80      C        0.98000    0.65150    0.71100    1.000
    H66      H        0.97310    0.69290    0.68220    1.000
    C81      C        0.95240    0.54340    0.75230    1.000
    H67      H        0.92880    0.50960    0.74750    1.000
    C82      C        0.13810    0.53670    0.96470    1.000
    H68      H        0.15460    0.51380    0.01630    1.000
    C83      C        0.99710    0.53400    0.80600    1.000
    H69      H        0.00200    0.49400    0.83960    1.000
    C84      C        0.12640    0.59940    0.83230    1.000
    H70      H        0.13160    0.62670    0.77610    1.000
    N28      N        0.16070    0.58200    0.89780    1.000
    O98      O        0.75900    0.37190    0.95390    1.000
    W36      W        0.84637    0.66622    0.02874    1.000
    W37      W        0.73376    0.66667    0.86822    1.000
    W38      W        0.63136    0.84216    0.18514    1.000
    W39      W        0.73411    0.57493    0.11145    1.000
    W40      W        0.73330    0.65837    0.33299    1.000
    Co8      Co       0.75975    0.39045    0.10690    1.000
    O99      O        0.66280    0.68370    0.85950    1.000
    O100     O        0.87310    0.68280    0.16320    1.000
    O101     O        0.79900    0.68500    0.29920    1.000
    O102     O        0.74430    0.57800    0.25680    1.000
    O103     O        0.62380    0.81740    0.04380    1.000
    O104     O        0.74060    0.61320    0.76760    1.000
    O105     O        0.80080    0.60600    0.09530    1.000
    O106     O        0.72160    0.60600    0.97720    1.000
    O107     O        0.71670    0.81580    0.16200    1.000
    O108     O        0.66290    0.85490    0.31460    1.000
    O109     O        0.80060    0.67060    0.91960    1.000
    O110     O        0.66360    0.92180    0.13840    1.000
    O111     O        0.74210    0.49120    0.09330    1.000
    N29      N        0.68030    0.37760    0.11140    1.000
    N30      N        0.59970    0.38410    0.15380    1.000
    N31      N        0.41990    0.42960    0.35980    1.000
    C85      C        0.47240    0.35850    0.25600    1.000
    H71      H        0.44730    0.32680    0.25060    1.000
    C86      C        0.40990    0.46890    0.44400    1.000
    H72      H        0.43280    0.49450    0.48040    1.000
    C87      C        0.46480    0.41740    0.30980    1.000
    C88      C        0.55540    0.39530    0.20730    1.000
    C89      C        0.60490    0.34390    0.06240    1.000
    H73      H        0.57950    0.32270    0.02660    1.000
    C90      C        0.65230    0.34350    0.04050    1.000
    H74      H        0.66560    0.32250    0.98340    1.000
    C91      C        0.64720    0.40230    0.17600    1.000
    H75      H        0.65560    0.42930    0.23160    1.000
    C92      C        0.52000    0.34850    0.21100    1.000
    H76      H        0.52690    0.30710    0.18220    1.000
    C93      C        0.54760    0.45660    0.25230    1.000
    H77      H        0.57120    0.49040    0.24750    1.000
    C94      C        0.36190    0.46330    0.46470    1.000
    H78      H        0.34540    0.48620    0.51630    1.000
    C95      C        0.50290    0.46600    0.30600    1.000
    H79      H        0.49800    0.50600    0.33960    1.000
    C96      C        0.37360    0.40060    0.33230    1.000
    H80      H        0.36840    0.37330    0.27610    1.000
    N32      N        0.33930    0.41800    0.39780    1.000
    O112     O        0.74100    0.62810    0.45390    1.000
    W41      W        0.65380    0.25000    0.75134    1.000
    W42      W        0.86842    0.25000    0.44110    1.000
    V1       V        0.76358    0.25000    0.60340    1.000
    O113     O        0.87610    0.25000    0.71930    1.000
    O114     O        0.75520    0.25000    0.29810    1.000
    O115     O        0.70210    0.25000    0.60300    1.000
    O116     O        0.62610    0.25000    0.48800    1.000
    O117     O        0.77890    0.25000    0.85820    1.000
    O118     O        0.78460    0.25000    0.48660    1.000
    W43      W        0.84620    0.75000    0.25134    1.000
    W44      W        0.63158    0.75000    0.94110    1.000
    V2       V        0.73642    0.75000    0.10340    1.000
    O119     O        0.62390    0.75000    0.21930    1.000
    O120     O        0.74480    0.75000    0.79810    1.000
    O121     O        0.79790    0.75000    0.10300    1.000
    O122     O        0.87390    0.75000    0.98800    1.000
    O123     O        0.72110    0.75000    0.35820    1.000
    O124     O        0.71540    0.75000    0.98660    1.000
    W45      W        0.34620    0.75000    0.24866    1.000
    W46      W        0.13158    0.75000    0.55890    1.000
    V3       V        0.23642    0.75000    0.39660    1.000
    O125     O        0.12390    0.75000    0.28070    1.000
    O126     O        0.24480    0.75000    0.70190    1.000
    O127     O        0.29790    0.75000    0.39700    1.000
    O128     O        0.37390    0.75000    0.51200    1.000
    O129     O        0.22110    0.75000    0.14180    1.000
    O130     O        0.21540    0.75000    0.51340    1.000
    W47      W        0.15380    0.25000    0.74866    1.000
    W48      W        0.36842    0.25000    0.05890    1.000
    V4       V        0.26358    0.25000    0.89660    1.000
    O131     O        0.37610    0.25000    0.78070    1.000
    O132     O        0.25520    0.25000    0.20190    1.000
    O133     O        0.20210    0.25000    0.89700    1.000
    O134     O        0.12610    0.25000    0.01200    1.000
    O135     O        0.27890    0.25000    0.64180    1.000
    O136     O        0.28460    0.25000    0.01340    1.000
