# CIF file generated by openbabel 3.1.0, see https://openbabel.org
data_I
_chemical_name_common 'image0'
_cell_length_a 16.1584
_cell_length_b 23.7409
_cell_length_c 30.7911
_cell_angle_alpha 90
_cell_angle_beta 90
_cell_angle_gamma 90
_space_group_name_H-M_alt 'P 1'
_space_group_name_Hall 'P 1'
loop_
    _symmetry_equiv_pos_as_xyz
    x,y,z
loop_
    _atom_site_label
    _atom_site_type_symbol
    _atom_site_fract_x
    _atom_site_fract_y
    _atom_site_fract_z
    _atom_site_occupancy
    C1       C        0.07910    0.72809    0.23235    1.000
    C2       C        0.04610    0.77798    0.21522    1.000
    H1       H        0.06550    0.79200    0.18890    1.000
    C3       C        0.98380    0.80653    0.23790    1.000
    H2       H        0.96190    0.83970    0.22660    1.000
    C4       C        0.95500    0.78582    0.27670    1.000
    C5       C        0.98730    0.73632    0.29435    1.000
    H3       H        0.96750    0.72240    0.32060    1.000
    C6       C        0.05010    0.70785    0.27164    1.000
    H4       H        0.07250    0.67500    0.28320    1.000
    C7       C        0.14320    0.69591    0.20688    1.000
    C8       C        0.88480    0.81475    0.30089    1.000
    C9       C        0.37910    0.63001    0.06922    1.000
    C10      C        0.47130    0.68110    0.01707    1.000
    H5       H        0.45230    0.71500    0.02860    1.000
    C11      C        0.44310    0.63028    0.03360    1.000
    C12      C        0.47320    0.57970    0.01711    1.000
    H6       H        0.45660    0.54580    0.02950    1.000
    C13      C        0.11720    0.63760    0.07234    1.000
    C14      C        0.02960    0.68920    0.01619    1.000
    H7       H        0.05230    0.72310    0.02550    1.000
    C15      C        0.05620    0.63733    0.03558    1.000
    C16      C        0.02710    0.58730    0.01743    1.000
    H8       H        0.04450    0.55310    0.02900    1.000
    C17      C        0.35230    0.48800    0.16615    1.000
    H9       H        0.32510    0.49840    0.14080    1.000
    C18      C        0.48080    0.44300    0.18727    1.000
    H10      H        0.52470    0.42310    0.17290    1.000
    H11      H        0.46810    0.42460    0.21420    1.000
    H12      H        0.49790    0.48100    0.19290    1.000
    C19      C        0.39010    0.39890    0.12563    1.000
    H13      H        0.34370    0.41040    0.10820    1.000
    H14      H        0.37760    0.36380    0.13970    1.000
    H15      H        0.43790    0.39440    0.10740    1.000
    C20      C        0.34360    0.79929    0.10306    1.000
    H16      H        0.38750    0.77630    0.11140    1.000
    C21      C        0.29540    0.88772    0.07839    1.000
    C22      C        0.21590    0.86646    0.07818    1.000
    C23      C        0.20000    0.81210    0.09121    1.000
    H17      H        0.14600    0.79870    0.09160    1.000
    C24      C        0.31750    0.94689    0.06699    1.000
    H18      H        0.27800    0.96100    0.04550    1.000
    C25      C        0.40410    0.94941    0.04780    1.000
    H19      H        0.44350    0.93680    0.06900    1.000
    H20      H        0.41670    0.98750    0.03960    1.000
    H21      H        0.40690    0.92550    0.02270    1.000
    C26      C        0.31560    0.98661    0.10810    1.000
    C27      C        0.34830    0.04666    0.09890    1.000
    C28      C        0.41240    0.06839    0.12532    1.000
    H22      H        0.43440    0.04620    0.14740    1.000
    C29      C        0.44200    0.12051    0.11900    1.000
    H23      H        0.48390    0.13410    0.13690    1.000
    C30      C        0.41040    0.15491    0.08573    1.000
    C31      C        0.34840    0.13491    0.06109    1.000
    H24      H        0.32620    0.15800    0.03970    1.000
    C32      C        0.31630    0.08125    0.06629    1.000
    C33      C        0.22590    0.99224    0.12481    1.000
    H25      H        0.19080    0.00470    0.10120    1.000
    H26      H        0.20640    0.95550    0.13410    1.000
    C34      C        0.20940    0.10924    0.19244    1.000
    H27      H        0.20150    0.14740    0.19790    1.000
    C35      C        0.23680    0.02491    0.20245    1.000
    H28      H        0.25210    0.99070    0.21470    1.000
    Co1      Co       0.25328    0.69200    0.12544    1.000
    Co2      Co       0.25569    0.58859    0.20916    1.000
    F1       F        0.15334    0.89837    0.06668    1.000
    F2       F        0.25291    0.06123    0.04147    1.000
    F3       F        0.43839    0.20757    0.07961    1.000
    N1       N        0.40730    0.44328    0.15951    1.000
    N2       N        0.26430    0.77759    0.10368    1.000
    N3       N        0.35980    0.85400    0.09048    1.000
    N4       N        0.21820    0.03178    0.16093    1.000
    N5       N        0.20050    0.08757    0.15375    1.000
    N6       N        0.23100    0.07217    0.22422    1.000
    O1       O        0.16708    0.71699    0.17170    1.000
    O2       O        0.17266    0.65136    0.22359    1.000
    O3       O        0.85195    0.79015    0.33236    1.000
    O4       O        0.86140    0.86250    0.28446    1.000
    O5       O        0.34081    0.67523    0.07747    1.000
    O6       O        0.36966    0.58353    0.09022    1.000
    O7       O        0.15626    0.68205    0.08072    1.000
    O8       O        0.12378    0.59239    0.09267    1.000
    O9       O        0.24930    0.60333    0.14224    1.000
    O10      O        0.33150    0.51671    0.19743    1.000
    O11      O        0.36425    0.96448    0.14199    1.000
    H29      H        0.33090    0.95790    0.16730    1.000
    H30      H        0.46910    0.46270    0.21380    1.000
    H31      H        0.52570    0.46120    0.17240    1.000
    H32      H        0.49590    0.40480    0.19380    1.000
    C36      C        0.57910    0.22809    0.73235    1.000
    C37      C        0.54610    0.27798    0.71522    1.000
    H33      H        0.56550    0.29200    0.68890    1.000
    C38      C        0.48380    0.30653    0.73790    1.000
    H34      H        0.46190    0.33970    0.72660    1.000
    C39      C        0.45500    0.28582    0.77670    1.000
    C40      C        0.48730    0.23632    0.79435    1.000
    H35      H        0.46750    0.22240    0.82060    1.000
    C41      C        0.55010    0.20785    0.77164    1.000
    H36      H        0.57250    0.17500    0.78320    1.000
    C42      C        0.64320    0.19591    0.70688    1.000
    C43      C        0.38480    0.31475    0.80089    1.000
    C44      C        0.87910    0.13001    0.56922    1.000
    C45      C        0.97130    0.18110    0.51707    1.000
    H37      H        0.95230    0.21500    0.52860    1.000
    C46      C        0.94310    0.13028    0.53360    1.000
    C47      C        0.97320    0.07970    0.51711    1.000
    H38      H        0.95660    0.04580    0.52950    1.000
    C48      C        0.61720    0.13760    0.57234    1.000
    C49      C        0.52960    0.18920    0.51619    1.000
    H39      H        0.55230    0.22310    0.52550    1.000
    C50      C        0.55620    0.13733    0.53558    1.000
    C51      C        0.52710    0.08730    0.51743    1.000
    H40      H        0.54450    0.05310    0.52900    1.000
    C52      C        0.85230    0.98800    0.66615    1.000
    H41      H        0.82510    0.99840    0.64080    1.000
    C53      C        0.98080    0.94300    0.68727    1.000
    H42      H        0.02470    0.92310    0.67290    1.000
    H43      H        0.96810    0.92460    0.71420    1.000
    H44      H        0.99790    0.98100    0.69290    1.000
    C54      C        0.89010    0.89890    0.62563    1.000
    H45      H        0.84370    0.91040    0.60820    1.000
    H46      H        0.87760    0.86380    0.63970    1.000
    H47      H        0.93790    0.89440    0.60740    1.000
    C55      C        0.84360    0.29929    0.60306    1.000
    H48      H        0.88750    0.27630    0.61140    1.000
    C56      C        0.79540    0.38772    0.57839    1.000
    C57      C        0.71590    0.36646    0.57818    1.000
    C58      C        0.70000    0.31210    0.59121    1.000
    H49      H        0.64600    0.29870    0.59160    1.000
    C59      C        0.81750    0.44689    0.56699    1.000
    H50      H        0.77800    0.46100    0.54550    1.000
    C60      C        0.90410    0.44941    0.54780    1.000
    H51      H        0.94350    0.43680    0.56900    1.000
    H52      H        0.91670    0.48750    0.53960    1.000
    H53      H        0.90690    0.42550    0.52270    1.000
    C61      C        0.81560    0.48661    0.60810    1.000
    C62      C        0.84830    0.54666    0.59890    1.000
    C63      C        0.91240    0.56839    0.62532    1.000
    H54      H        0.93440    0.54620    0.64740    1.000
    C64      C        0.94200    0.62051    0.61900    1.000
    H55      H        0.98390    0.63410    0.63690    1.000
    C65      C        0.91040    0.65491    0.58573    1.000
    C66      C        0.84840    0.63491    0.56109    1.000
    H56      H        0.82620    0.65800    0.53970    1.000
    C67      C        0.81630    0.58125    0.56629    1.000
    C68      C        0.72590    0.49224    0.62481    1.000
    H57      H        0.69080    0.50470    0.60120    1.000
    H58      H        0.70640    0.45550    0.63410    1.000
    C69      C        0.70940    0.60924    0.69244    1.000
    H59      H        0.70150    0.64740    0.69790    1.000
    C70      C        0.73680    0.52491    0.70245    1.000
    H60      H        0.75210    0.49070    0.71470    1.000
    Co3      Co       0.75328    0.19200    0.62544    1.000
    Co4      Co       0.75569    0.08859    0.70916    1.000
    F4       F        0.65334    0.39837    0.56668    1.000
    F5       F        0.75291    0.56123    0.54147    1.000
    F6       F        0.93839    0.70757    0.57961    1.000
    N7       N        0.90730    0.94328    0.65951    1.000
    N8       N        0.76430    0.27759    0.60368    1.000
    N9       N        0.85980    0.35400    0.59048    1.000
    N10      N        0.71820    0.53178    0.66093    1.000
    N11      N        0.70050    0.58757    0.65375    1.000
    N12      N        0.73100    0.57217    0.72422    1.000
    O12      O        0.66708    0.21699    0.67170    1.000
    O13      O        0.67266    0.15136    0.72359    1.000
    O14      O        0.35195    0.29015    0.83236    1.000
    O15      O        0.36140    0.36250    0.78446    1.000
    O16      O        0.84081    0.17523    0.57747    1.000
    O17      O        0.86966    0.08353    0.59022    1.000
    O18      O        0.65626    0.18205    0.58072    1.000
    O19      O        0.62378    0.09239    0.59267    1.000
    O20      O        0.74930    0.10333    0.64224    1.000
    O21      O        0.83150    0.01671    0.69743    1.000
    O22      O        0.86425    0.46448    0.64199    1.000
    H61      H        0.83090    0.45790    0.66730    1.000
    H62      H        0.96910    0.96270    0.71380    1.000
    H63      H        0.02570    0.96120    0.67240    1.000
    H64      H        0.99590    0.90480    0.69380    1.000
    C71      C        0.92090    0.27191    0.23235    1.000
    C72      C        0.95390    0.22202    0.21522    1.000
    H65      H        0.93450    0.20800    0.18890    1.000
    C73      C        0.01620    0.19347    0.23790    1.000
    H66      H        0.03810    0.16030    0.22660    1.000
    C74      C        0.04500    0.21418    0.27670    1.000
    C75      C        0.01270    0.26368    0.29435    1.000
    H67      H        0.03250    0.27760    0.32060    1.000
    C76      C        0.94990    0.29215    0.27164    1.000
    H68      H        0.92750    0.32500    0.28320    1.000
    C77      C        0.85680    0.30409    0.20688    1.000
    C78      C        0.11520    0.18525    0.30089    1.000
    C79      C        0.62090    0.36999    0.06922    1.000
    C80      C        0.52870    0.31890    0.01707    1.000
    H69      H        0.54770    0.28500    0.02860    1.000
    C81      C        0.55690    0.36972    0.03360    1.000
    C82      C        0.52680    0.42030    0.01711    1.000
    H70      H        0.54340    0.45420    0.02950    1.000
    C83      C        0.88280    0.36240    0.07234    1.000
    C84      C        0.97040    0.31080    0.01619    1.000
    H71      H        0.94770    0.27690    0.02550    1.000
    C85      C        0.94380    0.36267    0.03558    1.000
    C86      C        0.97290    0.41270    0.01743    1.000
    H72      H        0.95550    0.44690    0.02900    1.000
    C87      C        0.64770    0.51200    0.16615    1.000
    H73      H        0.67490    0.50160    0.14080    1.000
    C88      C        0.51920    0.55700    0.18727    1.000
    H74      H        0.47530    0.57690    0.17290    1.000
    H75      H        0.53190    0.57540    0.21420    1.000
    H76      H        0.50210    0.51900    0.19290    1.000
    C89      C        0.60990    0.60110    0.12563    1.000
    H77      H        0.65630    0.58960    0.10820    1.000
    H78      H        0.62240    0.63620    0.13970    1.000
    H79      H        0.56210    0.60560    0.10740    1.000
    C90      C        0.65640    0.20071    0.10306    1.000
    H80      H        0.61250    0.22370    0.11140    1.000
    C91      C        0.70460    0.11228    0.07839    1.000
    C92      C        0.78410    0.13354    0.07818    1.000
    C93      C        0.80000    0.18790    0.09121    1.000
    H81      H        0.85400    0.20130    0.09160    1.000
    C94      C        0.68250    0.05311    0.06699    1.000
    H82      H        0.72200    0.03900    0.04550    1.000
    C95      C        0.59590    0.05059    0.04780    1.000
    H83      H        0.55650    0.06320    0.06900    1.000
    H84      H        0.58330    0.01250    0.03960    1.000
    H85      H        0.59310    0.07450    0.02270    1.000
    C96      C        0.68440    0.01339    0.10810    1.000
    C97      C        0.65170    0.95334    0.09890    1.000
    C98      C        0.58760    0.93161    0.12532    1.000
    H86      H        0.56560    0.95380    0.14740    1.000
    C99      C        0.55800    0.87949    0.11900    1.000
    H87      H        0.51610    0.86590    0.13690    1.000
    C100     C        0.58960    0.84509    0.08573    1.000
    C101     C        0.65160    0.86509    0.06109    1.000
    H88      H        0.67380    0.84200    0.03970    1.000
    C102     C        0.68370    0.91875    0.06629    1.000
    C103     C        0.77410    0.00776    0.12481    1.000
    H89      H        0.80920    0.99530    0.10120    1.000
    H90      H        0.79360    0.04450    0.13410    1.000
    C104     C        0.79060    0.89076    0.19244    1.000
    H91      H        0.79850    0.85260    0.19790    1.000
    C105     C        0.76320    0.97509    0.20245    1.000
    H92      H        0.74790    0.00930    0.21470    1.000
    Co5      Co       0.74672    0.30800    0.12544    1.000
    Co6      Co       0.74431    0.41141    0.20916    1.000
    F7       F        0.84666    0.10163    0.06668    1.000
    F8       F        0.74709    0.93877    0.04147    1.000
    F9       F        0.56161    0.79243    0.07961    1.000
    N13      N        0.59270    0.55672    0.15951    1.000
    N14      N        0.73570    0.22241    0.10368    1.000
    N15      N        0.64020    0.14600    0.09048    1.000
    N16      N        0.78180    0.96822    0.16093    1.000
    N17      N        0.79950    0.91243    0.15375    1.000
    N18      N        0.76900    0.92783    0.22422    1.000
    O23      O        0.83292    0.28301    0.17170    1.000
    O24      O        0.82734    0.34864    0.22359    1.000
    O25      O        0.14805    0.20985    0.33236    1.000
    O26      O        0.13860    0.13750    0.28446    1.000
    O27      O        0.65919    0.32477    0.07747    1.000
    O28      O        0.63034    0.41647    0.09022    1.000
    O29      O        0.84374    0.31795    0.08072    1.000
    O30      O        0.87622    0.40761    0.09267    1.000
    O31      O        0.75070    0.39667    0.14224    1.000
    O32      O        0.66850    0.48329    0.19743    1.000
    O33      O        0.63575    0.03552    0.14199    1.000
    H93      H        0.66910    0.04210    0.16730    1.000
    H94      H        0.53090    0.53730    0.21380    1.000
    H95      H        0.47430    0.53880    0.17240    1.000
    H96      H        0.50410    0.59520    0.19380    1.000
    C106     C        0.42090    0.77191    0.73235    1.000
    C107     C        0.45390    0.72202    0.71522    1.000
    H97      H        0.43450    0.70800    0.68890    1.000
    C108     C        0.51620    0.69347    0.73790    1.000
    H98      H        0.53810    0.66030    0.72660    1.000
    C109     C        0.54500    0.71418    0.77670    1.000
    C110     C        0.51270    0.76368    0.79435    1.000
    H99      H        0.53250    0.77760    0.82060    1.000
    C111     C        0.44990    0.79215    0.77164    1.000
    H100     H        0.42750    0.82500    0.78320    1.000
    C112     C        0.35680    0.80409    0.70688    1.000
    C113     C        0.61520    0.68525    0.80089    1.000
    C114     C        0.12090    0.86999    0.56922    1.000
    C115     C        0.02870    0.81890    0.51707    1.000
    H101     H        0.04770    0.78500    0.52860    1.000
    C116     C        0.05690    0.86972    0.53360    1.000
    C117     C        0.02680    0.92030    0.51711    1.000
    H102     H        0.04340    0.95420    0.52950    1.000
    C118     C        0.38280    0.86240    0.57234    1.000
    C119     C        0.47040    0.81080    0.51619    1.000
    H103     H        0.44770    0.77690    0.52550    1.000
    C120     C        0.44380    0.86267    0.53558    1.000
    C121     C        0.47290    0.91270    0.51743    1.000
    H104     H        0.45550    0.94690    0.52900    1.000
    C122     C        0.14770    0.01200    0.66615    1.000
    H105     H        0.17490    0.00160    0.64080    1.000
    C123     C        0.01920    0.05700    0.68727    1.000
    H106     H        0.97530    0.07690    0.67290    1.000
    H107     H        0.03190    0.07540    0.71420    1.000
    H108     H        0.00210    0.01900    0.69290    1.000
    C124     C        0.10990    0.10110    0.62563    1.000
    H109     H        0.15630    0.08960    0.60820    1.000
    H110     H        0.12240    0.13620    0.63970    1.000
    H111     H        0.06210    0.10560    0.60740    1.000
    C125     C        0.15640    0.70071    0.60306    1.000
    H112     H        0.11250    0.72370    0.61140    1.000
    C126     C        0.20460    0.61228    0.57839    1.000
    C127     C        0.28410    0.63354    0.57818    1.000
    C128     C        0.30000    0.68790    0.59121    1.000
    H113     H        0.35400    0.70130    0.59160    1.000
    C129     C        0.18250    0.55311    0.56699    1.000
    H114     H        0.22200    0.53900    0.54550    1.000
    C130     C        0.09590    0.55059    0.54780    1.000
    H115     H        0.05650    0.56320    0.56900    1.000
    H116     H        0.08330    0.51250    0.53960    1.000
    H117     H        0.09310    0.57450    0.52270    1.000
    C131     C        0.18440    0.51339    0.60810    1.000
    C132     C        0.15170    0.45334    0.59890    1.000
    C133     C        0.08760    0.43161    0.62532    1.000
    H118     H        0.06560    0.45380    0.64740    1.000
    C134     C        0.05800    0.37949    0.61900    1.000
    H119     H        0.01610    0.36590    0.63690    1.000
    C135     C        0.08960    0.34509    0.58573    1.000
    C136     C        0.15160    0.36509    0.56109    1.000
    H120     H        0.17380    0.34200    0.53970    1.000
    C137     C        0.18370    0.41875    0.56629    1.000
    C138     C        0.27410    0.50776    0.62481    1.000
    H121     H        0.30920    0.49530    0.60120    1.000
    H122     H        0.29360    0.54450    0.63410    1.000
    C139     C        0.29060    0.39076    0.69244    1.000
    H123     H        0.29850    0.35260    0.69790    1.000
    C140     C        0.26320    0.47509    0.70245    1.000
    H124     H        0.24790    0.50930    0.71470    1.000
    Co7      Co       0.24672    0.80800    0.62544    1.000
    Co8      Co       0.24431    0.91141    0.70916    1.000
    F10      F        0.34666    0.60163    0.56668    1.000
    F11      F        0.24709    0.43877    0.54147    1.000
    F12      F        0.06161    0.29243    0.57961    1.000
    N19      N        0.09270    0.05672    0.65951    1.000
    N20      N        0.23570    0.72241    0.60368    1.000
    N21      N        0.14020    0.64600    0.59048    1.000
    N22      N        0.28180    0.46822    0.66093    1.000
    N23      N        0.29950    0.41243    0.65375    1.000
    N24      N        0.26900    0.42783    0.72422    1.000
    O34      O        0.33292    0.78301    0.67170    1.000
    O35      O        0.32734    0.84864    0.72359    1.000
    O36      O        0.64805    0.70985    0.83236    1.000
    O37      O        0.63860    0.63750    0.78446    1.000
    O38      O        0.15919    0.82477    0.57747    1.000
    O39      O        0.13034    0.91647    0.59022    1.000
    O40      O        0.34374    0.81795    0.58072    1.000
    O41      O        0.37622    0.90761    0.59267    1.000
    O42      O        0.25070    0.89667    0.64224    1.000
    O43      O        0.16850    0.98329    0.69743    1.000
    O44      O        0.13575    0.53552    0.64199    1.000
    H125     H        0.16910    0.54210    0.66730    1.000
    H126     H        0.03090    0.03730    0.71380    1.000
    H127     H        0.97430    0.03880    0.67240    1.000
    H128     H        0.00410    0.09520    0.69380    1.000
    C141     C        0.92090    0.72809    0.76765    1.000
    C142     C        0.95390    0.77798    0.78478    1.000
    H129     H        0.93450    0.79200    0.81110    1.000
    C143     C        0.01620    0.80653    0.76210    1.000
    H130     H        0.03810    0.83970    0.77340    1.000
    C144     C        0.04500    0.78582    0.72330    1.000
    C145     C        0.01270    0.73632    0.70565    1.000
    H131     H        0.03250    0.72240    0.67940    1.000
    C146     C        0.94990    0.70785    0.72836    1.000
    H132     H        0.92750    0.67500    0.71680    1.000
    C147     C        0.85680    0.69591    0.79312    1.000
    C148     C        0.11520    0.81475    0.69911    1.000
    C149     C        0.62090    0.63001    0.93078    1.000
    C150     C        0.52870    0.68110    0.98293    1.000
    H133     H        0.54770    0.71500    0.97140    1.000
    C151     C        0.55690    0.63028    0.96640    1.000
    C152     C        0.52680    0.57970    0.98289    1.000
    H134     H        0.54340    0.54580    0.97050    1.000
    C153     C        0.88280    0.63760    0.92766    1.000
    C154     C        0.97040    0.68920    0.98381    1.000
    H135     H        0.94770    0.72310    0.97450    1.000
    C155     C        0.94380    0.63733    0.96442    1.000
    C156     C        0.97290    0.58730    0.98257    1.000
    H136     H        0.95550    0.55310    0.97100    1.000
    C157     C        0.64770    0.48800    0.83385    1.000
    H137     H        0.67490    0.49840    0.85920    1.000
    C158     C        0.51920    0.44300    0.81273    1.000
    H138     H        0.47530    0.42310    0.82710    1.000
    H139     H        0.53190    0.42460    0.78580    1.000
    H140     H        0.50210    0.48100    0.80710    1.000
    C159     C        0.60990    0.39890    0.87437    1.000
    H141     H        0.65630    0.41040    0.89180    1.000
    H142     H        0.62240    0.36380    0.86030    1.000
    H143     H        0.56210    0.39440    0.89260    1.000
    C160     C        0.65640    0.79929    0.89694    1.000
    H144     H        0.61250    0.77630    0.88860    1.000
    C161     C        0.70460    0.88772    0.92161    1.000
    C162     C        0.78410    0.86646    0.92182    1.000
    C163     C        0.80000    0.81210    0.90879    1.000
    H145     H        0.85400    0.79870    0.90840    1.000
    C164     C        0.68250    0.94689    0.93301    1.000
    H146     H        0.72200    0.96100    0.95450    1.000
    C165     C        0.59590    0.94941    0.95220    1.000
    H147     H        0.55650    0.93680    0.93100    1.000
    H148     H        0.58330    0.98750    0.96040    1.000
    H149     H        0.59310    0.92550    0.97730    1.000
    C166     C        0.68440    0.98661    0.89190    1.000
    C167     C        0.65170    0.04666    0.90110    1.000
    C168     C        0.58760    0.06839    0.87468    1.000
    H150     H        0.56560    0.04620    0.85260    1.000
    C169     C        0.55800    0.12051    0.88100    1.000
    H151     H        0.51610    0.13410    0.86310    1.000
    C170     C        0.58960    0.15491    0.91427    1.000
    C171     C        0.65160    0.13491    0.93891    1.000
    H152     H        0.67380    0.15800    0.96030    1.000
    C172     C        0.68370    0.08125    0.93371    1.000
    C173     C        0.77410    0.99224    0.87519    1.000
    H153     H        0.80920    0.00470    0.89880    1.000
    H154     H        0.79360    0.95550    0.86590    1.000
    C174     C        0.79060    0.10924    0.80756    1.000
    H155     H        0.79850    0.14740    0.80210    1.000
    C175     C        0.76320    0.02491    0.79755    1.000
    H156     H        0.74790    0.99070    0.78530    1.000
    Co9      Co       0.74672    0.69200    0.87456    1.000
    Co10     Co       0.74431    0.58859    0.79084    1.000
    F13      F        0.84666    0.89837    0.93332    1.000
    F14      F        0.74709    0.06123    0.95853    1.000
    F15      F        0.56161    0.20757    0.92039    1.000
    N25      N        0.59270    0.44328    0.84049    1.000
    N26      N        0.73570    0.77759    0.89632    1.000
    N27      N        0.64020    0.85400    0.90952    1.000
    N28      N        0.78180    0.03178    0.83907    1.000
    N29      N        0.79950    0.08757    0.84625    1.000
    N30      N        0.76900    0.07217    0.77578    1.000
    O45      O        0.83292    0.71699    0.82830    1.000
    O46      O        0.82734    0.65136    0.77641    1.000
    O47      O        0.14805    0.79015    0.66764    1.000
    O48      O        0.13860    0.86250    0.71554    1.000
    O49      O        0.65919    0.67523    0.92253    1.000
    O50      O        0.63034    0.58353    0.90978    1.000
    O51      O        0.84374    0.68205    0.91928    1.000
    O52      O        0.87622    0.59239    0.90733    1.000
    O53      O        0.75070    0.60333    0.85776    1.000
    O54      O        0.66850    0.51671    0.80257    1.000
    O55      O        0.63575    0.96448    0.85801    1.000
    H157     H        0.66910    0.95790    0.83270    1.000
    H158     H        0.53090    0.46270    0.78620    1.000
    H159     H        0.47430    0.46120    0.82760    1.000
    H160     H        0.50410    0.40480    0.80620    1.000
    C176     C        0.42090    0.22809    0.26765    1.000
    C177     C        0.45390    0.27798    0.28478    1.000
    H161     H        0.43450    0.29200    0.31110    1.000
    C178     C        0.51620    0.30653    0.26210    1.000
    H162     H        0.53810    0.33970    0.27340    1.000
    C179     C        0.54500    0.28582    0.22330    1.000
    C180     C        0.51270    0.23632    0.20565    1.000
    H163     H        0.53250    0.22240    0.17940    1.000
    C181     C        0.44990    0.20785    0.22836    1.000
    H164     H        0.42750    0.17500    0.21680    1.000
    C182     C        0.35680    0.19591    0.29312    1.000
    C183     C        0.61520    0.31475    0.19911    1.000
    C184     C        0.12090    0.13001    0.43078    1.000
    C185     C        0.02870    0.18110    0.48293    1.000
    H165     H        0.04770    0.21500    0.47140    1.000
    C186     C        0.05690    0.13028    0.46640    1.000
    C187     C        0.02680    0.07970    0.48289    1.000
    H166     H        0.04340    0.04580    0.47050    1.000
    C188     C        0.38280    0.13760    0.42766    1.000
    C189     C        0.47040    0.18920    0.48381    1.000
    H167     H        0.44770    0.22310    0.47450    1.000
    C190     C        0.44380    0.13733    0.46442    1.000
    C191     C        0.47290    0.08730    0.48257    1.000
    H168     H        0.45550    0.05310    0.47100    1.000
    C192     C        0.14770    0.98800    0.33385    1.000
    H169     H        0.17490    0.99840    0.35920    1.000
    C193     C        0.01920    0.94300    0.31273    1.000
    H170     H        0.97530    0.92310    0.32710    1.000
    H171     H        0.03190    0.92460    0.28580    1.000
    H172     H        0.00210    0.98100    0.30710    1.000
    C194     C        0.10990    0.89890    0.37437    1.000
    H173     H        0.15630    0.91040    0.39180    1.000
    H174     H        0.12240    0.86380    0.36030    1.000
    H175     H        0.06210    0.89440    0.39260    1.000
    C195     C        0.15640    0.29929    0.39694    1.000
    H176     H        0.11250    0.27630    0.38860    1.000
    C196     C        0.20460    0.38772    0.42161    1.000
    C197     C        0.28410    0.36646    0.42182    1.000
    C198     C        0.30000    0.31210    0.40879    1.000
    H177     H        0.35400    0.29870    0.40840    1.000
    C199     C        0.18250    0.44689    0.43301    1.000
    H178     H        0.22200    0.46100    0.45450    1.000
    C200     C        0.09590    0.44941    0.45220    1.000
    H179     H        0.05650    0.43680    0.43100    1.000
    H180     H        0.08330    0.48750    0.46040    1.000
    H181     H        0.09310    0.42550    0.47730    1.000
    C201     C        0.18440    0.48661    0.39190    1.000
    C202     C        0.15170    0.54666    0.40110    1.000
    C203     C        0.08760    0.56839    0.37468    1.000
    H182     H        0.06560    0.54620    0.35260    1.000
    C204     C        0.05800    0.62051    0.38100    1.000
    H183     H        0.01610    0.63410    0.36310    1.000
    C205     C        0.08960    0.65491    0.41427    1.000
    C206     C        0.15160    0.63491    0.43891    1.000
    H184     H        0.17380    0.65800    0.46030    1.000
    C207     C        0.18370    0.58125    0.43371    1.000
    C208     C        0.27410    0.49224    0.37519    1.000
    H185     H        0.30920    0.50470    0.39880    1.000
    H186     H        0.29360    0.45550    0.36590    1.000
    C209     C        0.29060    0.60924    0.30756    1.000
    H187     H        0.29850    0.64740    0.30210    1.000
    C210     C        0.26320    0.52491    0.29755    1.000
    H188     H        0.24790    0.49070    0.28530    1.000
    Co11     Co       0.24672    0.19200    0.37456    1.000
    Co12     Co       0.24431    0.08859    0.29084    1.000
    F16      F        0.34666    0.39837    0.43332    1.000
    F17      F        0.24709    0.56123    0.45853    1.000
    F18      F        0.06161    0.70757    0.42039    1.000
    N31      N        0.09270    0.94328    0.34049    1.000
    N32      N        0.23570    0.27759    0.39632    1.000
    N33      N        0.14020    0.35400    0.40952    1.000
    N34      N        0.28180    0.53178    0.33907    1.000
    N35      N        0.29950    0.58757    0.34625    1.000
    N36      N        0.26900    0.57217    0.27578    1.000
    O56      O        0.33292    0.21699    0.32830    1.000
    O57      O        0.32734    0.15136    0.27641    1.000
    O58      O        0.64805    0.29015    0.16764    1.000
    O59      O        0.63860    0.36250    0.21554    1.000
    O60      O        0.15919    0.17523    0.42253    1.000
    O61      O        0.13034    0.08353    0.40978    1.000
    O62      O        0.34374    0.18205    0.41928    1.000
    O63      O        0.37622    0.09239    0.40733    1.000
    O64      O        0.25070    0.10333    0.35776    1.000
    O65      O        0.16850    0.01671    0.30257    1.000
    O66      O        0.13575    0.46448    0.35801    1.000
    H189     H        0.16910    0.45790    0.33270    1.000
    H190     H        0.03090    0.96270    0.28620    1.000
    H191     H        0.97430    0.96120    0.32760    1.000
    H192     H        0.00410    0.90480    0.30620    1.000
    C211     C        0.07910    0.27191    0.76765    1.000
    C212     C        0.04610    0.22202    0.78478    1.000
    H193     H        0.06550    0.20800    0.81110    1.000
    C213     C        0.98380    0.19347    0.76210    1.000
    H194     H        0.96190    0.16030    0.77340    1.000
    C214     C        0.95500    0.21418    0.72330    1.000
    C215     C        0.98730    0.26368    0.70565    1.000
    H195     H        0.96750    0.27760    0.67940    1.000
    C216     C        0.05010    0.29215    0.72836    1.000
    H196     H        0.07250    0.32500    0.71680    1.000
    C217     C        0.14320    0.30409    0.79312    1.000
    C218     C        0.88480    0.18525    0.69911    1.000
    C219     C        0.37910    0.36999    0.93078    1.000
    C220     C        0.47130    0.31890    0.98293    1.000
    H197     H        0.45230    0.28500    0.97140    1.000
    C221     C        0.44310    0.36972    0.96640    1.000
    C222     C        0.47320    0.42030    0.98289    1.000
    H198     H        0.45660    0.45420    0.97050    1.000
    C223     C        0.11720    0.36240    0.92766    1.000
    C224     C        0.02960    0.31080    0.98381    1.000
    H199     H        0.05230    0.27690    0.97450    1.000
    C225     C        0.05620    0.36267    0.96442    1.000
    C226     C        0.02710    0.41270    0.98257    1.000
    H200     H        0.04450    0.44690    0.97100    1.000
    C227     C        0.35230    0.51200    0.83385    1.000
    H201     H        0.32510    0.50160    0.85920    1.000
    C228     C        0.48080    0.55700    0.81273    1.000
    H202     H        0.52470    0.57690    0.82710    1.000
    H203     H        0.46810    0.57540    0.78580    1.000
    H204     H        0.49790    0.51900    0.80710    1.000
    C229     C        0.39010    0.60110    0.87437    1.000
    H205     H        0.34370    0.58960    0.89180    1.000
    H206     H        0.37760    0.63620    0.86030    1.000
    H207     H        0.43790    0.60560    0.89260    1.000
    C230     C        0.34360    0.20071    0.89694    1.000
    H208     H        0.38750    0.22370    0.88860    1.000
    C231     C        0.29540    0.11228    0.92161    1.000
    C232     C        0.21590    0.13354    0.92182    1.000
    C233     C        0.20000    0.18790    0.90879    1.000
    H209     H        0.14600    0.20130    0.90840    1.000
    C234     C        0.31750    0.05311    0.93301    1.000
    H210     H        0.27800    0.03900    0.95450    1.000
    C235     C        0.40410    0.05059    0.95220    1.000
    H211     H        0.44350    0.06320    0.93100    1.000
    H212     H        0.41670    0.01250    0.96040    1.000
    H213     H        0.40690    0.07450    0.97730    1.000
    C236     C        0.31560    0.01339    0.89190    1.000
    C237     C        0.34830    0.95334    0.90110    1.000
    C238     C        0.41240    0.93161    0.87468    1.000
    H214     H        0.43440    0.95380    0.85260    1.000
    C239     C        0.44200    0.87949    0.88100    1.000
    H215     H        0.48390    0.86590    0.86310    1.000
    C240     C        0.41040    0.84509    0.91427    1.000
    C241     C        0.34840    0.86509    0.93891    1.000
    H216     H        0.32620    0.84200    0.96030    1.000
    C242     C        0.31630    0.91875    0.93371    1.000
    C243     C        0.22590    0.00776    0.87519    1.000
    H217     H        0.19080    0.99530    0.89880    1.000
    H218     H        0.20640    0.04450    0.86590    1.000
    C244     C        0.20940    0.89076    0.80756    1.000
    H219     H        0.20150    0.85260    0.80210    1.000
    C245     C        0.23680    0.97509    0.79755    1.000
    H220     H        0.25210    0.00930    0.78530    1.000
    Co13     Co       0.25328    0.30800    0.87456    1.000
    Co14     Co       0.25569    0.41141    0.79084    1.000
    F19      F        0.15334    0.10163    0.93332    1.000
    F20      F        0.25291    0.93877    0.95853    1.000
    F21      F        0.43839    0.79243    0.92039    1.000
    N37      N        0.40730    0.55672    0.84049    1.000
    N38      N        0.26430    0.22241    0.89632    1.000
    N39      N        0.35980    0.14600    0.90952    1.000
    N40      N        0.21820    0.96822    0.83907    1.000
    N41      N        0.20050    0.91243    0.84625    1.000
    N42      N        0.23100    0.92783    0.77578    1.000
    O67      O        0.16708    0.28301    0.82830    1.000
    O68      O        0.17266    0.34864    0.77641    1.000
    O69      O        0.85195    0.20985    0.66764    1.000
    O70      O        0.86140    0.13750    0.71554    1.000
    O71      O        0.34081    0.32477    0.92253    1.000
    O72      O        0.36966    0.41647    0.90978    1.000
    O73      O        0.15626    0.31795    0.91928    1.000
    O74      O        0.12378    0.40761    0.90733    1.000
    O75      O        0.24930    0.39667    0.85776    1.000
    O76      O        0.33150    0.48329    0.80257    1.000
    O77      O        0.36425    0.03552    0.85801    1.000
    H221     H        0.33090    0.04210    0.83270    1.000
    H222     H        0.46910    0.53730    0.78620    1.000
    H223     H        0.52570    0.53880    0.82760    1.000
    H224     H        0.49590    0.59520    0.80620    1.000
    C246     C        0.57910    0.77191    0.26765    1.000
    C247     C        0.54610    0.72202    0.28478    1.000
    H225     H        0.56550    0.70800    0.31110    1.000
    C248     C        0.48380    0.69347    0.26210    1.000
    H226     H        0.46190    0.66030    0.27340    1.000
    C249     C        0.45500    0.71418    0.22330    1.000
    C250     C        0.48730    0.76368    0.20565    1.000
    H227     H        0.46750    0.77760    0.17940    1.000
    C251     C        0.55010    0.79215    0.22836    1.000
    H228     H        0.57250    0.82500    0.21680    1.000
    C252     C        0.64320    0.80409    0.29312    1.000
    C253     C        0.38480    0.68525    0.19911    1.000
    C254     C        0.87910    0.86999    0.43078    1.000
    C255     C        0.97130    0.81890    0.48293    1.000
    H229     H        0.95230    0.78500    0.47140    1.000
    C256     C        0.94310    0.86972    0.46640    1.000
    C257     C        0.97320    0.92030    0.48289    1.000
    H230     H        0.95660    0.95420    0.47050    1.000
    C258     C        0.61720    0.86240    0.42766    1.000
    C259     C        0.52960    0.81080    0.48381    1.000
    H231     H        0.55230    0.77690    0.47450    1.000
    C260     C        0.55620    0.86267    0.46442    1.000
    C261     C        0.52710    0.91270    0.48257    1.000
    H232     H        0.54450    0.94690    0.47100    1.000
    C262     C        0.85230    0.01200    0.33385    1.000
    H233     H        0.82510    0.00160    0.35920    1.000
    C263     C        0.98080    0.05700    0.31273    1.000
    H234     H        0.02470    0.07690    0.32710    1.000
    H235     H        0.96810    0.07540    0.28580    1.000
    H236     H        0.99790    0.01900    0.30710    1.000
    C264     C        0.89010    0.10110    0.37437    1.000
    H237     H        0.84370    0.08960    0.39180    1.000
    H238     H        0.87760    0.13620    0.36030    1.000
    H239     H        0.93790    0.10560    0.39260    1.000
    C265     C        0.84360    0.70071    0.39694    1.000
    H240     H        0.88750    0.72370    0.38860    1.000
    C266     C        0.79540    0.61228    0.42161    1.000
    C267     C        0.71590    0.63354    0.42182    1.000
    C268     C        0.70000    0.68790    0.40879    1.000
    H241     H        0.64600    0.70130    0.40840    1.000
    C269     C        0.81750    0.55311    0.43301    1.000
    H242     H        0.77800    0.53900    0.45450    1.000
    C270     C        0.90410    0.55059    0.45220    1.000
    H243     H        0.94350    0.56320    0.43100    1.000
    H244     H        0.91670    0.51250    0.46040    1.000
    H245     H        0.90690    0.57450    0.47730    1.000
    C271     C        0.81560    0.51339    0.39190    1.000
    C272     C        0.84830    0.45334    0.40110    1.000
    C273     C        0.91240    0.43161    0.37468    1.000
    H246     H        0.93440    0.45380    0.35260    1.000
    C274     C        0.94200    0.37949    0.38100    1.000
    H247     H        0.98390    0.36590    0.36310    1.000
    C275     C        0.91040    0.34509    0.41427    1.000
    C276     C        0.84840    0.36509    0.43891    1.000
    H248     H        0.82620    0.34200    0.46030    1.000
    C277     C        0.81630    0.41875    0.43371    1.000
    C278     C        0.72590    0.50776    0.37519    1.000
    H249     H        0.69080    0.49530    0.39880    1.000
    H250     H        0.70640    0.54450    0.36590    1.000
    C279     C        0.70940    0.39076    0.30756    1.000
    H251     H        0.70150    0.35260    0.30210    1.000
    C280     C        0.73680    0.47509    0.29755    1.000
    H252     H        0.75210    0.50930    0.28530    1.000
    Co15     Co       0.75328    0.80800    0.37456    1.000
    Co16     Co       0.75569    0.91141    0.29084    1.000
    F22      F        0.65334    0.60163    0.43332    1.000
    F23      F        0.75291    0.43877    0.45853    1.000
    F24      F        0.93839    0.29243    0.42039    1.000
    N43      N        0.90730    0.05672    0.34049    1.000
    N44      N        0.76430    0.72241    0.39632    1.000
    N45      N        0.85980    0.64600    0.40952    1.000
    N46      N        0.71820    0.46822    0.33907    1.000
    N47      N        0.70050    0.41243    0.34625    1.000
    N48      N        0.73100    0.42783    0.27578    1.000
    O78      O        0.66708    0.78301    0.32830    1.000
    O79      O        0.67266    0.84864    0.27641    1.000
    O80      O        0.35195    0.70985    0.16764    1.000
    O81      O        0.36140    0.63750    0.21554    1.000
    O82      O        0.84081    0.82477    0.42253    1.000
    O83      O        0.86966    0.91647    0.40978    1.000
    O84      O        0.65626    0.81795    0.41928    1.000
    O85      O        0.62378    0.90761    0.40733    1.000
    O86      O        0.74930    0.89667    0.35776    1.000
    O87      O        0.83150    0.98329    0.30257    1.000
    O88      O        0.86425    0.53552    0.35801    1.000
    H253     H        0.83090    0.54210    0.33270    1.000
    H254     H        0.96910    0.03730    0.28620    1.000
    H255     H        0.02570    0.03880    0.32760    1.000
    H256     H        0.99590    0.09520    0.30620    1.000
