# CIF file generated by openbabel 3.1.0, see https://openbabel.org
data_I
_chemical_name_common 'image0'
_cell_length_a 21.148
_cell_length_b 9.2771
_cell_length_c 17.264
_cell_angle_alpha 90
_cell_angle_beta 106.404
_cell_angle_gamma 90
_space_group_name_H-M_alt 'P 1'
_space_group_name_Hall 'P 1'
loop_
    _symmetry_equiv_pos_as_xyz
    x,y,z
loop_
    _atom_site_label
    _atom_site_type_symbol
    _atom_site_fract_x
    _atom_site_fract_y
    _atom_site_fract_z
    _atom_site_occupancy
    Nd1      Nd       0.98629    0.68394    0.42683    1.000
    N1       N        0.72266    0.45380    0.56876    1.000
    N2       N        0.86587    0.84530    0.78122    1.000
    C1       C        0.91870    0.86700    0.67690    1.000
    H1       H        0.93400    0.92680    0.64290    1.000
    C2       C        0.92481    0.72000    0.67308    1.000
    C3       C        0.89921    0.63620    0.72260    1.000
    H2       H        0.90190    0.53630    0.72100    1.000
    C4       C        0.86946    0.70260    0.77460    1.000
    H3       H        0.85100    0.64510    0.80670    1.000
    C5       C        0.88960    0.92430    0.73190    1.000
    H4       H        0.88650    0.02410    0.73470    1.000
    C6       C        0.77606    0.37100    0.58360    1.000
    H5       H        0.78190    0.30030    0.62310    1.000
    C7       C        0.71400    0.54860    0.50930    1.000
    H6       H        0.67540    0.60280    0.49540    1.000
    C8       C        0.75993    0.57030    0.46700    1.000
    H7       H        0.75250    0.63940    0.42640    1.000
    C9       C        0.82301    0.38520    0.54300    1.000
    H8       H        0.85930    0.32380    0.55480    1.000
    C10      C        0.03775    0.74380    0.26829    1.000
    C11      C        0.96370    0.01600    0.47647    1.000
    Cu1      Cu       0.66642    0.44600    0.64030    1.000
    Cu2      Cu       0.83950    0.10040    0.37620    1.000
    O1       O        0.05847    0.76520    0.34269    1.000
    O2       O        0.93545    0.92830    0.42293    1.000
    O3       O        0.07140    0.72640    0.21968    1.000
    O4       O        0.93876    0.12810    0.49559    1.000
    C12      C        0.81652    0.48910    0.48538    1.000
    C13      C        0.87218    0.52170    0.44922    1.000
    O5       O        0.86559    0.62370    0.40065    1.000
    O6       O        0.92493    0.45020    0.47276    1.000
    C14      C        0.95934    0.65110    0.61714    1.000
    O7       O        0.96137    0.72270    0.55645    1.000
    O8       O        0.98236    0.52740    0.63561    1.000
    Nd2      Nd       0.48629    0.18394    0.42683    1.000
    N3       N        0.22266    0.95380    0.56876    1.000
    N4       N        0.36587    0.34530    0.78122    1.000
    C15      C        0.41870    0.36700    0.67690    1.000
    H9       H        0.43400    0.42680    0.64290    1.000
    C16      C        0.42481    0.22000    0.67308    1.000
    C17      C        0.39921    0.13620    0.72260    1.000
    H10      H        0.40190    0.03630    0.72100    1.000
    C18      C        0.36946    0.20260    0.77460    1.000
    H11      H        0.35100    0.14510    0.80670    1.000
    C19      C        0.38960    0.42430    0.73190    1.000
    H12      H        0.38650    0.52410    0.73470    1.000
    C20      C        0.27606    0.87100    0.58360    1.000
    H13      H        0.28190    0.80030    0.62310    1.000
    C21      C        0.21400    0.04860    0.50930    1.000
    H14      H        0.17540    0.10280    0.49540    1.000
    C22      C        0.25993    0.07030    0.46700    1.000
    H15      H        0.25250    0.13940    0.42640    1.000
    C23      C        0.32301    0.88520    0.54300    1.000
    H16      H        0.35930    0.82380    0.55480    1.000
    C24      C        0.53775    0.24380    0.26829    1.000
    C25      C        0.46370    0.51600    0.47647    1.000
    Cu3      Cu       0.16642    0.94600    0.64030    1.000
    Cu4      Cu       0.33950    0.60040    0.37620    1.000
    O9       O        0.55847    0.26520    0.34269    1.000
    O10      O        0.43545    0.42830    0.42293    1.000
    O11      O        0.57140    0.22640    0.21968    1.000
    O12      O        0.43876    0.62810    0.49559    1.000
    C26      C        0.31652    0.98910    0.48538    1.000
    C27      C        0.37218    0.02170    0.44922    1.000
    O13      O        0.36559    0.12370    0.40065    1.000
    O14      O        0.42493    0.95020    0.47276    1.000
    C28      C        0.45934    0.15110    0.61714    1.000
    O15      O        0.46137    0.22270    0.55645    1.000
    O16      O        0.48236    0.02740    0.63561    1.000
    Nd3      Nd       0.01371    0.68394    0.07317    1.000
    N5       N        0.27734    0.45380    0.93124    1.000
    N6       N        0.13413    0.84530    0.71878    1.000
    C29      C        0.08130    0.86700    0.82310    1.000
    H17      H        0.06600    0.92680    0.85710    1.000
    C30      C        0.07519    0.72000    0.82692    1.000
    C31      C        0.10079    0.63620    0.77740    1.000
    H18      H        0.09810    0.53630    0.77900    1.000
    C32      C        0.13054    0.70260    0.72540    1.000
    H19      H        0.14900    0.64510    0.69330    1.000
    C33      C        0.11040    0.92430    0.76810    1.000
    H20      H        0.11350    0.02410    0.76530    1.000
    C34      C        0.22394    0.37100    0.91640    1.000
    H21      H        0.21810    0.30030    0.87690    1.000
    C35      C        0.28600    0.54860    0.99070    1.000
    H22      H        0.32460    0.60280    0.00460    1.000
    C36      C        0.24007    0.57030    0.03300    1.000
    H23      H        0.24750    0.63940    0.07360    1.000
    C37      C        0.17699    0.38520    0.95700    1.000
    H24      H        0.14070    0.32380    0.94520    1.000
    C38      C        0.96225    0.74380    0.23171    1.000
    C39      C        0.03630    0.01600    0.02353    1.000
    Cu5      Cu       0.33358    0.44600    0.85970    1.000
    Cu6      Cu       0.16050    0.10040    0.12380    1.000
    O17      O        0.94153    0.76520    0.15731    1.000
    O18      O        0.06455    0.92830    0.07707    1.000
    O19      O        0.92860    0.72640    0.28032    1.000
    O20      O        0.06124    0.12810    0.00441    1.000
    C40      C        0.18348    0.48910    0.01462    1.000
    C41      C        0.12782    0.52170    0.05078    1.000
    O21      O        0.13441    0.62370    0.09935    1.000
    O22      O        0.07507    0.45020    0.02724    1.000
    C42      C        0.04066    0.65110    0.88286    1.000
    O23      O        0.03863    0.72270    0.94355    1.000
    O24      O        0.01764    0.52740    0.86439    1.000
    Nd4      Nd       0.51371    0.18394    0.07317    1.000
    N7       N        0.77734    0.95380    0.93124    1.000
    N8       N        0.63413    0.34530    0.71878    1.000
    C43      C        0.58130    0.36700    0.82310    1.000
    H25      H        0.56600    0.42680    0.85710    1.000
    C44      C        0.57519    0.22000    0.82692    1.000
    C45      C        0.60079    0.13620    0.77740    1.000
    H26      H        0.59810    0.03630    0.77900    1.000
    C46      C        0.63054    0.20260    0.72540    1.000
    H27      H        0.64900    0.14510    0.69330    1.000
    C47      C        0.61040    0.42430    0.76810    1.000
    H28      H        0.61350    0.52410    0.76530    1.000
    C48      C        0.72394    0.87100    0.91640    1.000
    H29      H        0.71810    0.80030    0.87690    1.000
    C49      C        0.78600    0.04860    0.99070    1.000
    H30      H        0.82460    0.10280    0.00460    1.000
    C50      C        0.74007    0.07030    0.03300    1.000
    H31      H        0.74750    0.13940    0.07360    1.000
    C51      C        0.67699    0.88520    0.95700    1.000
    H32      H        0.64070    0.82380    0.94520    1.000
    C52      C        0.46225    0.24380    0.23171    1.000
    C53      C        0.53630    0.51600    0.02353    1.000
    Cu7      Cu       0.83358    0.94600    0.85970    1.000
    Cu8      Cu       0.66050    0.60040    0.12380    1.000
    O25      O        0.44153    0.26520    0.15731    1.000
    O26      O        0.56455    0.42830    0.07707    1.000
    O27      O        0.42860    0.22640    0.28032    1.000
    O28      O        0.56124    0.62810    0.00441    1.000
    C54      C        0.68348    0.98910    0.01462    1.000
    C55      C        0.62782    0.02170    0.05078    1.000
    O29      O        0.63441    0.12370    0.09935    1.000
    O30      O        0.57507    0.95020    0.02724    1.000
    C56      C        0.54066    0.15110    0.88286    1.000
    O31      O        0.53863    0.22270    0.94355    1.000
    O32      O        0.51764    0.02740    0.86439    1.000
    Nd5      Nd       0.01371    0.31606    0.57317    1.000
    N9       N        0.27734    0.54620    0.43124    1.000
    N10      N        0.13413    0.15470    0.21878    1.000
    C57      C        0.08130    0.13300    0.32310    1.000
    H33      H        0.06600    0.07320    0.35710    1.000
    C58      C        0.07519    0.28000    0.32692    1.000
    C59      C        0.10079    0.36380    0.27740    1.000
    H34      H        0.09810    0.46370    0.27900    1.000
    C60      C        0.13054    0.29740    0.22540    1.000
    H35      H        0.14900    0.35490    0.19330    1.000
    C61      C        0.11040    0.07570    0.26810    1.000
    H36      H        0.11350    0.97590    0.26530    1.000
    C62      C        0.22394    0.62900    0.41640    1.000
    H37      H        0.21810    0.69970    0.37690    1.000
    C63      C        0.28600    0.45140    0.49070    1.000
    H38      H        0.32460    0.39720    0.50460    1.000
    C64      C        0.24007    0.42970    0.53300    1.000
    H39      H        0.24750    0.36060    0.57360    1.000
    C65      C        0.17699    0.61480    0.45700    1.000
    H40      H        0.14070    0.67620    0.44520    1.000
    C66      C        0.96225    0.25620    0.73171    1.000
    C67      C        0.03630    0.98400    0.52353    1.000
    Cu9      Cu       0.33358    0.55400    0.35970    1.000
    Cu10     Cu       0.16050    0.89960    0.62380    1.000
    O33      O        0.94153    0.23480    0.65731    1.000
    O34      O        0.06455    0.07170    0.57707    1.000
    O35      O        0.92860    0.27360    0.78032    1.000
    O36      O        0.06124    0.87190    0.50441    1.000
    C68      C        0.18348    0.51090    0.51462    1.000
    C69      C        0.12782    0.47830    0.55078    1.000
    O37      O        0.13441    0.37630    0.59935    1.000
    O38      O        0.07507    0.54980    0.52724    1.000
    C70      C        0.04066    0.34890    0.38286    1.000
    O39      O        0.03863    0.27730    0.44355    1.000
    O40      O        0.01764    0.47260    0.36439    1.000
    Nd6      Nd       0.51371    0.81606    0.57317    1.000
    N11      N        0.77734    0.04620    0.43124    1.000
    N12      N        0.63413    0.65470    0.21878    1.000
    C71      C        0.58130    0.63300    0.32310    1.000
    H41      H        0.56600    0.57320    0.35710    1.000
    C72      C        0.57519    0.78000    0.32692    1.000
    C73      C        0.60079    0.86380    0.27740    1.000
    H42      H        0.59810    0.96370    0.27900    1.000
    C74      C        0.63054    0.79740    0.22540    1.000
    H43      H        0.64900    0.85490    0.19330    1.000
    C75      C        0.61040    0.57570    0.26810    1.000
    H44      H        0.61350    0.47590    0.26530    1.000
    C76      C        0.72394    0.12900    0.41640    1.000
    H45      H        0.71810    0.19970    0.37690    1.000
    C77      C        0.78600    0.95140    0.49070    1.000
    H46      H        0.82460    0.89720    0.50460    1.000
    C78      C        0.74007    0.92970    0.53300    1.000
    H47      H        0.74750    0.86060    0.57360    1.000
    C79      C        0.67699    0.11480    0.45700    1.000
    H48      H        0.64070    0.17620    0.44520    1.000
    C80      C        0.46225    0.75620    0.73171    1.000
    C81      C        0.53630    0.48400    0.52353    1.000
    Cu11     Cu       0.83358    0.05400    0.35970    1.000
    Cu12     Cu       0.66050    0.39960    0.62380    1.000
    O41      O        0.44153    0.73480    0.65731    1.000
    O42      O        0.56455    0.57170    0.57707    1.000
    O43      O        0.42860    0.77360    0.78032    1.000
    O44      O        0.56124    0.37190    0.50441    1.000
    C82      C        0.68348    0.01090    0.51462    1.000
    C83      C        0.62782    0.97830    0.55078    1.000
    O45      O        0.63441    0.87630    0.59935    1.000
    O46      O        0.57507    0.04980    0.52724    1.000
    C84      C        0.54066    0.84890    0.38286    1.000
    O47      O        0.53863    0.77730    0.44355    1.000
    O48      O        0.51764    0.97260    0.36439    1.000
    Nd7      Nd       0.98629    0.31606    0.92683    1.000
    N13      N        0.72266    0.54620    0.06876    1.000
    N14      N        0.86587    0.15470    0.28122    1.000
    C85      C        0.91870    0.13300    0.17690    1.000
    H49      H        0.93400    0.07320    0.14290    1.000
    C86      C        0.92481    0.28000    0.17308    1.000
    C87      C        0.89921    0.36380    0.22260    1.000
    H50      H        0.90190    0.46370    0.22100    1.000
    C88      C        0.86946    0.29740    0.27460    1.000
    H51      H        0.85100    0.35490    0.30670    1.000
    C89      C        0.88960    0.07570    0.23190    1.000
    H52      H        0.88650    0.97590    0.23470    1.000
    C90      C        0.77606    0.62900    0.08360    1.000
    H53      H        0.78190    0.69970    0.12310    1.000
    C91      C        0.71400    0.45140    0.00930    1.000
    H54      H        0.67540    0.39720    0.99540    1.000
    C92      C        0.75993    0.42970    0.96700    1.000
    H55      H        0.75250    0.36060    0.92640    1.000
    C93      C        0.82301    0.61480    0.04300    1.000
    H56      H        0.85930    0.67620    0.05480    1.000
    C94      C        0.03775    0.25620    0.76829    1.000
    C95      C        0.96370    0.98400    0.97647    1.000
    Cu13     Cu       0.66642    0.55400    0.14030    1.000
    Cu14     Cu       0.83950    0.89960    0.87620    1.000
    O49      O        0.05847    0.23480    0.84269    1.000
    O50      O        0.93545    0.07170    0.92293    1.000
    O51      O        0.07140    0.27360    0.71968    1.000
    O52      O        0.93876    0.87190    0.99559    1.000
    C96      C        0.81652    0.51090    0.98538    1.000
    C97      C        0.87218    0.47830    0.94922    1.000
    O53      O        0.86559    0.37630    0.90065    1.000
    O54      O        0.92493    0.54980    0.97276    1.000
    C98      C        0.95934    0.34890    0.11714    1.000
    O55      O        0.96137    0.27730    0.05645    1.000
    O56      O        0.98236    0.47260    0.13561    1.000
    Nd8      Nd       0.48629    0.81606    0.92683    1.000
    N15      N        0.22266    0.04620    0.06876    1.000
    N16      N        0.36587    0.65470    0.28122    1.000
    C99      C        0.41870    0.63300    0.17690    1.000
    H57      H        0.43400    0.57320    0.14290    1.000
    C100     C        0.42481    0.78000    0.17308    1.000
    C101     C        0.39921    0.86380    0.22260    1.000
    H58      H        0.40190    0.96370    0.22100    1.000
    C102     C        0.36946    0.79740    0.27460    1.000
    H59      H        0.35100    0.85490    0.30670    1.000
    C103     C        0.38960    0.57570    0.23190    1.000
    H60      H        0.38650    0.47590    0.23470    1.000
    C104     C        0.27606    0.12900    0.08360    1.000
    H61      H        0.28190    0.19970    0.12310    1.000
    C105     C        0.21400    0.95140    0.00930    1.000
    H62      H        0.17540    0.89720    0.99540    1.000
    C106     C        0.25993    0.92970    0.96700    1.000
    H63      H        0.25250    0.86060    0.92640    1.000
    C107     C        0.32301    0.11480    0.04300    1.000
    H64      H        0.35930    0.17620    0.05480    1.000
    C108     C        0.53775    0.75620    0.76829    1.000
    C109     C        0.46370    0.48400    0.97647    1.000
    Cu15     Cu       0.16642    0.05400    0.14030    1.000
    Cu16     Cu       0.33950    0.39960    0.87620    1.000
    O57      O        0.55847    0.73480    0.84269    1.000
    O58      O        0.43545    0.57170    0.92293    1.000
    O59      O        0.57140    0.77360    0.71968    1.000
    O60      O        0.43876    0.37190    0.99559    1.000
    C110     C        0.31652    0.01090    0.98538    1.000
    C111     C        0.37218    0.97830    0.94922    1.000
    O61      O        0.36559    0.87630    0.90065    1.000
    O62      O        0.42493    0.04980    0.97276    1.000
    C112     C        0.45934    0.84890    0.11714    1.000
    O63      O        0.46137    0.77730    0.05645    1.000
    O64      O        0.48236    0.97260    0.13561    1.000
