# CIF file generated by openbabel 3.1.0, see https://openbabel.org
data_I
_chemical_name_common 'KEJBOQ_clean_h'
_cell_length_a 12.691
_cell_length_b 15.545
_cell_length_c 18.342
_cell_angle_alpha 90
_cell_angle_beta 90
_cell_angle_gamma 90
_space_group_name_H-M_alt 'P 1'
_space_group_name_Hall 'P 1'
loop_
    _symmetry_equiv_pos_as_xyz
    x,y,z
loop_
    _atom_site_label
    _atom_site_type_symbol
    _atom_site_fract_x
    _atom_site_fract_y
    _atom_site_fract_z
    _atom_site_occupancy
    Cd1      Cd       0.18286    0.71257    0.68312    1.000
    C1       C        0.04880    0.57850    0.72450    1.000
    C2       C        0.98890    0.49570    0.74080    1.000
    C3       C        0.02600    0.41890    0.71310    1.000
    C4       C        0.97230    0.34360    0.73100    1.000
    C5       C        0.85010    0.41790    0.79790    1.000
    C6       C        0.89860    0.49560    0.78350    1.000
    C7       C        0.85210    0.76690    0.40810    1.000
    C8       C        0.93660    0.75190    0.46420    1.000
    C9       C        0.95660    0.67030    0.49120    1.000
    C10      C        0.02920    0.66080    0.54630    1.000
    C11      C        0.06910    0.80500    0.54560    1.000
    C12      C        0.99530    0.82110    0.49150    1.000
    N1       N        0.88580    0.34240    0.77270    1.000
    N2       N        0.08390    0.72700    0.57450    1.000
    O1       O        0.00550    0.64940    0.73940    1.000
    O2       O        0.13770    0.57160    0.69670    1.000
    O3       O        0.82300    0.84280    0.39510    1.000
    O4       O        0.81170    0.70260    0.37840    1.000
    H1       H        0.09874    0.41824    0.67664    1.000
    H2       H        0.00172    0.27896    0.70985    1.000
    H3       H        0.77583    0.41588    0.83282    1.000
    H4       H        0.86612    0.55871    0.80580    1.000
    H5       H        0.91317    0.61237    0.46776    1.000
    H6       H        0.04532    0.59440    0.57020    1.000
    H7       H        0.12030    0.85956    0.56727    1.000
    H8       H        0.98185    0.88869    0.46924    1.000
    Cd2      Cd       0.31714    0.28743    0.18312    1.000
    C13      C        0.45120    0.42150    0.22450    1.000
    C14      C        0.51110    0.50430    0.24080    1.000
    C15      C        0.47400    0.58110    0.21310    1.000
    C16      C        0.52770    0.65640    0.23100    1.000
    C17      C        0.64990    0.58210    0.29790    1.000
    C18      C        0.60140    0.50440    0.28350    1.000
    C19      C        0.64790    0.23310    0.90810    1.000
    C20      C        0.56340    0.24810    0.96420    1.000
    C21      C        0.54340    0.32970    0.99120    1.000
    C22      C        0.47080    0.33920    0.04630    1.000
    C23      C        0.43090    0.19500    0.04560    1.000
    C24      C        0.50470    0.17890    0.99150    1.000
    N3       N        0.61420    0.65760    0.27270    1.000
    N4       N        0.41610    0.27300    0.07450    1.000
    O5       O        0.49450    0.35060    0.23940    1.000
    O6       O        0.36230    0.42840    0.19670    1.000
    O7       O        0.67700    0.15720    0.89510    1.000
    O8       O        0.68830    0.29740    0.87840    1.000
    H9       H        0.40126    0.58176    0.17664    1.000
    H10      H        0.49828    0.72104    0.20985    1.000
    H11      H        0.72417    0.58412    0.33282    1.000
    H12      H        0.63388    0.44129    0.30580    1.000
    H13      H        0.58683    0.38763    0.96776    1.000
    H14      H        0.45468    0.40560    0.07020    1.000
    H15      H        0.37970    0.14044    0.06727    1.000
    H16      H        0.51815    0.11131    0.96924    1.000
    Cd3      Cd       0.81714    0.21257    0.81688    1.000
    C25      C        0.95120    0.07850    0.77550    1.000
    C26      C        0.01110    0.99570    0.75920    1.000
    C27      C        0.97400    0.91890    0.78690    1.000
    C28      C        0.02770    0.84360    0.76900    1.000
    C29      C        0.14990    0.91790    0.70210    1.000
    C30      C        0.10140    0.99560    0.71650    1.000
    C31      C        0.14790    0.26690    0.09190    1.000
    C32      C        0.06340    0.25190    0.03580    1.000
    C33      C        0.04340    0.17030    0.00880    1.000
    C34      C        0.97080    0.16080    0.95370    1.000
    C35      C        0.93090    0.30500    0.95440    1.000
    C36      C        0.00470    0.32110    0.00850    1.000
    N5       N        0.11420    0.84240    0.72730    1.000
    N6       N        0.91610    0.22700    0.92550    1.000
    O9       O        0.99450    0.14940    0.76060    1.000
    O10      O        0.86230    0.07160    0.80330    1.000
    O11      O        0.17700    0.34280    0.10490    1.000
    O12      O        0.18830    0.20260    0.12160    1.000
    H17      H        0.90126    0.91824    0.82336    1.000
    H18      H        0.99828    0.77896    0.79015    1.000
    H19      H        0.22417    0.91588    0.66718    1.000
    H20      H        0.13388    0.05871    0.69420    1.000
    H21      H        0.08683    0.11237    0.03224    1.000
    H22      H        0.95468    0.09440    0.92980    1.000
    H23      H        0.87970    0.35956    0.93273    1.000
    H24      H        0.01815    0.38869    0.03076    1.000
    Cd4      Cd       0.68286    0.78743    0.31688    1.000
    C37      C        0.54880    0.92150    0.27550    1.000
    C38      C        0.48890    0.00430    0.25920    1.000
    C39      C        0.52600    0.08110    0.28690    1.000
    C40      C        0.47230    0.15640    0.26900    1.000
    C41      C        0.35010    0.08210    0.20210    1.000
    C42      C        0.39860    0.00440    0.21650    1.000
    C43      C        0.35210    0.73310    0.59190    1.000
    C44      C        0.43660    0.74810    0.53580    1.000
    C45      C        0.45660    0.82970    0.50880    1.000
    C46      C        0.52920    0.83920    0.45370    1.000
    C47      C        0.56910    0.69500    0.45440    1.000
    C48      C        0.49530    0.67890    0.50850    1.000
    N7       N        0.38580    0.15760    0.22730    1.000
    N8       N        0.58390    0.77300    0.42550    1.000
    O13      O        0.50550    0.85060    0.26060    1.000
    O14      O        0.63770    0.92840    0.30330    1.000
    O15      O        0.32300    0.65720    0.60490    1.000
    O16      O        0.31170    0.79740    0.62160    1.000
    H25      H        0.59874    0.08176    0.32336    1.000
    H26      H        0.50172    0.22104    0.29015    1.000
    H27      H        0.27583    0.08412    0.16718    1.000
    H28      H        0.36612    0.94129    0.19420    1.000
    H29      H        0.41317    0.88763    0.53224    1.000
    H30      H        0.54532    0.90560    0.42980    1.000
    H31      H        0.62030    0.64044    0.43273    1.000
    H32      H        0.48185    0.61131    0.53076    1.000
    Cd5      Cd       0.81714    0.28743    0.31688    1.000
    C49      C        0.95120    0.42150    0.27550    1.000
    C50      C        0.01110    0.50430    0.25920    1.000
    C51      C        0.97400    0.58110    0.28690    1.000
    C52      C        0.02770    0.65640    0.26900    1.000
    C53      C        0.14990    0.58210    0.20210    1.000
    C54      C        0.10140    0.50440    0.21650    1.000
    C55      C        0.14790    0.23310    0.59190    1.000
    C56      C        0.06340    0.24810    0.53580    1.000
    C57      C        0.04340    0.32970    0.50880    1.000
    C58      C        0.97080    0.33920    0.45370    1.000
    C59      C        0.93090    0.19500    0.45440    1.000
    C60      C        0.00470    0.17890    0.50850    1.000
    N9       N        0.11420    0.65760    0.22730    1.000
    N10      N        0.91610    0.27300    0.42550    1.000
    O17      O        0.99450    0.35060    0.26060    1.000
    O18      O        0.86230    0.42840    0.30330    1.000
    O19      O        0.17700    0.15720    0.60490    1.000
    O20      O        0.18830    0.29740    0.62160    1.000
    H33      H        0.90126    0.58176    0.32336    1.000
    H34      H        0.99828    0.72104    0.29015    1.000
    H35      H        0.22417    0.58412    0.16718    1.000
    H36      H        0.13388    0.44129    0.19420    1.000
    H37      H        0.08683    0.38763    0.53224    1.000
    H38      H        0.95468    0.40560    0.42980    1.000
    H39      H        0.87970    0.14044    0.43273    1.000
    H40      H        0.01815    0.11131    0.53076    1.000
    Cd6      Cd       0.68286    0.71257    0.81688    1.000
    C61      C        0.54880    0.57850    0.77550    1.000
    C62      C        0.48890    0.49570    0.75920    1.000
    C63      C        0.52600    0.41890    0.78690    1.000
    C64      C        0.47230    0.34360    0.76900    1.000
    C65      C        0.35010    0.41790    0.70210    1.000
    C66      C        0.39860    0.49560    0.71650    1.000
    C67      C        0.35210    0.76690    0.09190    1.000
    C68      C        0.43660    0.75190    0.03580    1.000
    C69      C        0.45660    0.67030    0.00880    1.000
    C70      C        0.52920    0.66080    0.95370    1.000
    C71      C        0.56910    0.80500    0.95440    1.000
    C72      C        0.49530    0.82110    0.00850    1.000
    N11      N        0.38580    0.34240    0.72730    1.000
    N12      N        0.58390    0.72700    0.92550    1.000
    O21      O        0.50550    0.64940    0.76060    1.000
    O22      O        0.63770    0.57160    0.80330    1.000
    O23      O        0.32300    0.84280    0.10490    1.000
    O24      O        0.31170    0.70260    0.12160    1.000
    H41      H        0.59874    0.41824    0.82336    1.000
    H42      H        0.50172    0.27896    0.79015    1.000
    H43      H        0.27583    0.41588    0.66718    1.000
    H44      H        0.36612    0.55871    0.69420    1.000
    H45      H        0.41317    0.61237    0.03224    1.000
    H46      H        0.54532    0.59440    0.92980    1.000
    H47      H        0.62030    0.85956    0.93273    1.000
    H48      H        0.48185    0.88869    0.03076    1.000
    Cd7      Cd       0.18286    0.78743    0.18312    1.000
    C73      C        0.04880    0.92150    0.22450    1.000
    C74      C        0.98890    0.00430    0.24080    1.000
    C75      C        0.02600    0.08110    0.21310    1.000
    C76      C        0.97230    0.15640    0.23100    1.000
    C77      C        0.85010    0.08210    0.29790    1.000
    C78      C        0.89860    0.00440    0.28350    1.000
    C79      C        0.85210    0.73310    0.90810    1.000
    C80      C        0.93660    0.74810    0.96420    1.000
    C81      C        0.95660    0.82970    0.99120    1.000
    C82      C        0.02920    0.83920    0.04630    1.000
    C83      C        0.06910    0.69500    0.04560    1.000
    C84      C        0.99530    0.67890    0.99150    1.000
    N13      N        0.88580    0.15760    0.27270    1.000
    N14      N        0.08390    0.77300    0.07450    1.000
    O25      O        0.00550    0.85060    0.23940    1.000
    O26      O        0.13770    0.92840    0.19670    1.000
    O27      O        0.82300    0.65720    0.89510    1.000
    O28      O        0.81170    0.79740    0.87840    1.000
    H49      H        0.09874    0.08176    0.17664    1.000
    H50      H        0.00172    0.22104    0.20985    1.000
    H51      H        0.77583    0.08412    0.33282    1.000
    H52      H        0.86612    0.94129    0.30580    1.000
    H53      H        0.91317    0.88763    0.96776    1.000
    H54      H        0.04532    0.90560    0.07020    1.000
    H55      H        0.12030    0.64044    0.06727    1.000
    H56      H        0.98185    0.61131    0.96924    1.000
    Cd8      Cd       0.31714    0.21257    0.68312    1.000
    C85      C        0.45120    0.07850    0.72450    1.000
    C86      C        0.51110    0.99570    0.74080    1.000
    C87      C        0.47400    0.91890    0.71310    1.000
    C88      C        0.52770    0.84360    0.73100    1.000
    C89      C        0.64990    0.91790    0.79790    1.000
    C90      C        0.60140    0.99560    0.78350    1.000
    C91      C        0.64790    0.26690    0.40810    1.000
    C92      C        0.56340    0.25190    0.46420    1.000
    C93      C        0.54340    0.17030    0.49120    1.000
    C94      C        0.47080    0.16080    0.54630    1.000
    C95      C        0.43090    0.30500    0.54560    1.000
    C96      C        0.50470    0.32110    0.49150    1.000
    N15      N        0.61420    0.84240    0.77270    1.000
    N16      N        0.41610    0.22700    0.57450    1.000
    O29      O        0.49450    0.14940    0.73940    1.000
    O30      O        0.36230    0.07160    0.69670    1.000
    O31      O        0.67700    0.34280    0.39510    1.000
    O32      O        0.68830    0.20260    0.37840    1.000
    H57      H        0.40126    0.91824    0.67664    1.000
    H58      H        0.49828    0.77896    0.70985    1.000
    H59      H        0.72417    0.91588    0.83282    1.000
    H60      H        0.63388    0.05871    0.80580    1.000
    H61      H        0.58683    0.11237    0.46776    1.000
    H62      H        0.45468    0.09440    0.57020    1.000
    H63      H        0.37970    0.35956    0.56727    1.000
    H64      H        0.51815    0.38869    0.46924    1.000
