# CIF file generated by openbabel 3.1.0, see https://openbabel.org
data_I
_chemical_name_common 'MIFQOJ_clean'
_cell_length_a 14.107
_cell_length_b 17.275
_cell_length_c 17.275
_cell_angle_alpha 120
_cell_angle_beta 90
_cell_angle_gamma 90
_space_group_name_H-M_alt 'P 1'
_space_group_name_Hall 'P 1'
loop_
    _symmetry_equiv_pos_as_xyz
    x,y,z
loop_
    _atom_site_label
    _atom_site_type_symbol
    _atom_site_fract_x
    _atom_site_fract_y
    _atom_site_fract_z
    _atom_site_occupancy
    Mn1      Mn       0.89616    0.33333    0.66666    1.000
    Mn2      Mn       0.60384    0.33333    0.66666    1.000
    Mn3      Mn       0.10384    0.66667    0.33334    1.000
    Mn4      Mn       0.39616    0.66667    0.33334    1.000
    H1       H        0.61540    0.06470    0.57090    1.000
    H2       H        0.59140    0.78540    0.36830    1.000
    H3       H        0.35290    0.78490    0.56120    1.000
    H4       H        0.33720    0.90400    0.70520    1.000
    H5       H        0.44520    0.02020    0.76250    1.000
    H6       H        0.56420    0.02710    0.67450    1.000
    H7       H        0.61540    0.50620    0.93530    1.000
    H8       H        0.59140    0.58290    0.21460    1.000
    H9       H        0.35290    0.77630    0.21510    1.000
    H10      H        0.33720    0.80120    0.09600    1.000
    H11      H        0.44520    0.74230    0.97980    1.000
    H12      H        0.56420    0.64740    0.97290    1.000
    H13      H        0.61540    0.42910    0.49380    1.000
    H14      H        0.59140    0.63170    0.41710    1.000
    H15      H        0.35290    0.43880    0.22370    1.000
    H16      H        0.33720    0.29480    0.19880    1.000
    H17      H        0.44520    0.23750    0.25770    1.000
    H18      H        0.56420    0.32550    0.35260    1.000
    H19      H        0.88460    0.50620    0.57090    1.000
    H20      H        0.90860    0.58290    0.36830    1.000
    H21      H        0.14710    0.77630    0.56120    1.000
    H22      H        0.16280    0.80120    0.70520    1.000
    H23      H        0.05480    0.74230    0.76250    1.000
    H24      H        0.93580    0.64740    0.67450    1.000
    H25      H        0.88460    0.42910    0.93530    1.000
    H26      H        0.90860    0.63170    0.21460    1.000
    H27      H        0.14710    0.43880    0.21510    1.000
    H28      H        0.16280    0.29480    0.09600    1.000
    H29      H        0.05480    0.23750    0.97980    1.000
    H30      H        0.93580    0.32550    0.97290    1.000
    H31      H        0.88460    0.06470    0.49380    1.000
    H32      H        0.90860    0.78540    0.41710    1.000
    H33      H        0.14710    0.78490    0.22370    1.000
    H34      H        0.16280    0.90400    0.19880    1.000
    H35      H        0.05480    0.02020    0.25770    1.000
    H36      H        0.93580    0.02710    0.35260    1.000
    H37      H        0.38460    0.93530    0.42910    1.000
    H38      H        0.40860    0.21460    0.63170    1.000
    H39      H        0.64710    0.21510    0.43880    1.000
    H40      H        0.66280    0.09600    0.29480    1.000
    H41      H        0.55480    0.97980    0.23750    1.000
    H42      H        0.43580    0.97290    0.32550    1.000
    H43      H        0.38460    0.49380    0.06470    1.000
    H44      H        0.40860    0.41710    0.78540    1.000
    H45      H        0.64710    0.22370    0.78490    1.000
    H46      H        0.66280    0.19880    0.90400    1.000
    H47      H        0.55480    0.25770    0.02020    1.000
    H48      H        0.43580    0.35260    0.02710    1.000
    H49      H        0.38460    0.57090    0.50620    1.000
    H50      H        0.40860    0.36830    0.58290    1.000
    H51      H        0.64710    0.56120    0.77630    1.000
    H52      H        0.66280    0.70520    0.80120    1.000
    H53      H        0.55480    0.76250    0.74230    1.000
    H54      H        0.43580    0.67450    0.64740    1.000
    H55      H        0.11540    0.49380    0.42910    1.000
    H56      H        0.09140    0.41710    0.63170    1.000
    H57      H        0.85290    0.22370    0.43880    1.000
    H58      H        0.83720    0.19880    0.29480    1.000
    H59      H        0.94520    0.25770    0.23750    1.000
    H60      H        0.06420    0.35260    0.32550    1.000
    H61      H        0.11540    0.57090    0.06470    1.000
    H62      H        0.09140    0.36830    0.78540    1.000
    H63      H        0.85290    0.56120    0.78490    1.000
    H64      H        0.83720    0.70520    0.90400    1.000
    H65      H        0.94520    0.76250    0.02020    1.000
    H66      H        0.06420    0.67450    0.02710    1.000
    H67      H        0.11540    0.93530    0.50620    1.000
    H68      H        0.09140    0.21460    0.58290    1.000
    H69      H        0.85290    0.21510    0.77630    1.000
    H70      H        0.83720    0.09600    0.80120    1.000
    H71      H        0.94520    0.97980    0.74230    1.000
    H72      H        0.06420    0.97290    0.64740    1.000
    H73      H        0.75000    0.83240    0.41620    1.000
    H74      H        0.75000    0.58380    0.16760    1.000
    H75      H        0.75000    0.58380    0.41620    1.000
    H76      H        0.25000    0.16760    0.58380    1.000
    H77      H        0.25000    0.41620    0.83240    1.000
    H78      H        0.25000    0.41620    0.58380    1.000
    C1       C        0.66953    0.03378    0.54029    1.000
    C2       C        0.67082    0.94124    0.49448    1.000
    C3       C        0.56160    0.81180    0.42372    1.000
    C4       C        0.46543    0.83659    0.53018    1.000
    C5       C        0.39430    0.83330    0.58310    1.000
    C6       C        0.38630    0.90360    0.66900    1.000
    C7       C        0.45090    0.97490    0.70330    1.000
    C8       C        0.52200    0.97940    0.65190    1.000
    C9       C        0.52820    0.90959    0.56452    1.000
    C10      C        0.66953    0.50651    0.96622    1.000
    C11      C        0.67082    0.55324    0.05876    1.000
    C12      C        0.56160    0.61192    0.18820    1.000
    C13      C        0.46543    0.69359    0.16341    1.000
    C14      C        0.39430    0.74980    0.16670    1.000
    C15      C        0.38630    0.76540    0.09640    1.000
    C16      C        0.45090    0.72840    0.02510    1.000
    C17      C        0.52200    0.67250    0.02060    1.000
    C18      C        0.52820    0.65493    0.09041    1.000
    C19      C        0.66953    0.45971    0.49349    1.000
    C20      C        0.67082    0.50552    0.44676    1.000
    C21      C        0.56160    0.57628    0.38808    1.000
    C22      C        0.46543    0.46982    0.30641    1.000
    C23      C        0.39430    0.41690    0.25020    1.000
    C24      C        0.38630    0.33100    0.23460    1.000
    C25      C        0.45090    0.29670    0.27160    1.000
    C26      C        0.52200    0.34810    0.32750    1.000
    C27      C        0.52820    0.43548    0.34507    1.000
    C28      C        0.83047    0.50651    0.54029    1.000
    C29      C        0.82918    0.55324    0.49448    1.000
    C30      C        0.93840    0.61192    0.42372    1.000
    C31      C        0.03457    0.69359    0.53018    1.000
    C32      C        0.10570    0.74980    0.58310    1.000
    C33      C        0.11370    0.76540    0.66900    1.000
    C34      C        0.04910    0.72840    0.70330    1.000
    C35      C        0.97800    0.67250    0.65190    1.000
    C36      C        0.97180    0.65493    0.56452    1.000
    C37      C        0.83047    0.45971    0.96622    1.000
    C38      C        0.82918    0.50552    0.05876    1.000
    C39      C        0.93840    0.57628    0.18820    1.000
    C40      C        0.03457    0.46982    0.16341    1.000
    C41      C        0.10570    0.41690    0.16670    1.000
    C42      C        0.11370    0.33100    0.09640    1.000
    C43      C        0.04910    0.29670    0.02510    1.000
    C44      C        0.97800    0.34810    0.02060    1.000
    C45      C        0.97180    0.43548    0.09041    1.000
    C46      C        0.83047    0.03378    0.49349    1.000
    C47      C        0.82918    0.94124    0.44676    1.000
    C48      C        0.93840    0.81180    0.38808    1.000
    C49      C        0.03457    0.83659    0.30641    1.000
    C50      C        0.10570    0.83330    0.25020    1.000
    C51      C        0.11370    0.90360    0.23460    1.000
    C52      C        0.04910    0.97490    0.27160    1.000
    C53      C        0.97800    0.97940    0.32750    1.000
    C54      C        0.97180    0.90959    0.34507    1.000
    C55      C        0.33047    0.96622    0.45971    1.000
    C56      C        0.32918    0.05876    0.50552    1.000
    C57      C        0.43840    0.18820    0.57628    1.000
    C58      C        0.53457    0.16341    0.46982    1.000
    C59      C        0.60570    0.16670    0.41690    1.000
    C60      C        0.61370    0.09640    0.33100    1.000
    C61      C        0.54910    0.02510    0.29670    1.000
    C62      C        0.47800    0.02060    0.34810    1.000
    C63      C        0.47180    0.09041    0.43548    1.000
    C64      C        0.33047    0.49349    0.03378    1.000
    C65      C        0.32918    0.44676    0.94124    1.000
    C66      C        0.43840    0.38808    0.81180    1.000
    C67      C        0.53457    0.30641    0.83659    1.000
    C68      C        0.60570    0.25020    0.83330    1.000
    C69      C        0.61370    0.23460    0.90360    1.000
    C70      C        0.54910    0.27160    0.97490    1.000
    C71      C        0.47800    0.32750    0.97940    1.000
    C72      C        0.47180    0.34507    0.90959    1.000
    C73      C        0.33047    0.54029    0.50651    1.000
    C74      C        0.32918    0.49448    0.55324    1.000
    C75      C        0.43840    0.42372    0.61192    1.000
    C76      C        0.53457    0.53018    0.69359    1.000
    C77      C        0.60570    0.58310    0.74980    1.000
    C78      C        0.61370    0.66900    0.76540    1.000
    C79      C        0.54910    0.70330    0.72840    1.000
    C80      C        0.47800    0.65190    0.67250    1.000
    C81      C        0.47180    0.56452    0.65493    1.000
    C82      C        0.16953    0.49349    0.45971    1.000
    C83      C        0.17082    0.44676    0.50552    1.000
    C84      C        0.06160    0.38808    0.57628    1.000
    C85      C        0.96543    0.30641    0.46982    1.000
    C86      C        0.89430    0.25020    0.41690    1.000
    C87      C        0.88630    0.23460    0.33100    1.000
    C88      C        0.95090    0.27160    0.29670    1.000
    C89      C        0.02200    0.32750    0.34810    1.000
    C90      C        0.02820    0.34507    0.43548    1.000
    C91      C        0.16953    0.54029    0.03378    1.000
    C92      C        0.17082    0.49448    0.94124    1.000
    C93      C        0.06160    0.42372    0.81180    1.000
    C94      C        0.96543    0.53018    0.83659    1.000
    C95      C        0.89430    0.58310    0.83330    1.000
    C96      C        0.88630    0.66900    0.90360    1.000
    C97      C        0.95090    0.70330    0.97490    1.000
    C98      C        0.02200    0.65190    0.97940    1.000
    C99      C        0.02820    0.56452    0.90959    1.000
    C100     C        0.16953    0.96622    0.50651    1.000
    C101     C        0.17082    0.05876    0.55324    1.000
    C102     C        0.06160    0.18820    0.61192    1.000
    C103     C        0.96543    0.16341    0.69359    1.000
    C104     C        0.89430    0.16670    0.74980    1.000
    C105     C        0.88630    0.09640    0.76540    1.000
    C106     C        0.95090    0.02510    0.72840    1.000
    C107     C        0.02200    0.02060    0.67250    1.000
    C108     C        0.02820    0.09041    0.65493    1.000
    C109     C        0.75000    0.18000    0.59000    1.000
    C110     C        0.75000    0.07990    0.53995    1.000
    C111     C        0.75000    0.89460    0.44730    1.000
    C112     C        0.75000    0.41000    0.82000    1.000
    C113     C        0.75000    0.46005    0.92010    1.000
    C114     C        0.75000    0.55270    0.10540    1.000
    C115     C        0.75000    0.41000    0.59000    1.000
    C116     C        0.75000    0.46005    0.53995    1.000
    C117     C        0.75000    0.55270    0.44730    1.000
    C118     C        0.25000    0.82000    0.41000    1.000
    C119     C        0.25000    0.92010    0.46005    1.000
    C120     C        0.25000    0.10540    0.55270    1.000
    C121     C        0.25000    0.59000    0.18000    1.000
    C122     C        0.25000    0.53995    0.07990    1.000
    C123     C        0.25000    0.44730    0.89460    1.000
    C124     C        0.25000    0.59000    0.41000    1.000
    C125     C        0.25000    0.53995    0.46005    1.000
    C126     C        0.25000    0.44730    0.55270    1.000
    N1       N        0.58962    0.89170    0.49425    1.000
    N2       N        0.48872    0.77557    0.44128    1.000
    N3       N        0.58962    0.60255    0.10830    1.000
    N4       N        0.48872    0.66571    0.22443    1.000
    N5       N        0.58962    0.50575    0.39745    1.000
    N6       N        0.48872    0.55872    0.33429    1.000
    N7       N        0.91038    0.60255    0.49425    1.000
    N8       N        0.01128    0.66571    0.44128    1.000
    N9       N        0.91038    0.50575    0.10830    1.000
    N10      N        0.01128    0.55872    0.22443    1.000
    N11      N        0.91038    0.89170    0.39745    1.000
    N12      N        0.01128    0.77557    0.33429    1.000
    N13      N        0.41038    0.10830    0.50575    1.000
    N14      N        0.51128    0.22443    0.55872    1.000
    N15      N        0.41038    0.39745    0.89170    1.000
    N16      N        0.51128    0.33429    0.77557    1.000
    N17      N        0.41038    0.49425    0.60255    1.000
    N18      N        0.51128    0.44128    0.66571    1.000
    N19      N        0.08962    0.39745    0.50575    1.000
    N20      N        0.98872    0.33429    0.55872    1.000
    N21      N        0.08962    0.49425    0.89170    1.000
    N22      N        0.98872    0.44128    0.77557    1.000
    N23      N        0.08962    0.10830    0.60255    1.000
    N24      N        0.98872    0.22443    0.66571    1.000
    O1       O        0.81787    0.21800    0.57493    1.000
    O2       O        0.81787    0.35693    0.78200    1.000
    O3       O        0.81787    0.42507    0.64307    1.000
    O4       O        0.68213    0.35693    0.57493    1.000
    O5       O        0.68213    0.42507    0.78200    1.000
    O6       O        0.68213    0.21800    0.64307    1.000
    O7       O        0.18213    0.78200    0.42507    1.000
    O8       O        0.18213    0.64307    0.21800    1.000
    O9       O        0.18213    0.57493    0.35693    1.000
    O10      O        0.31787    0.64307    0.42507    1.000
    O11      O        0.31787    0.57493    0.21800    1.000
    O12      O        0.31787    0.78200    0.35693    1.000
