# CIF file generated by openbabel 3.1.0, see https://openbabel.org
data_I
_chemical_name_common 'ZEDQEG_clean'
_cell_length_a 12.88
_cell_length_b 16.87
_cell_length_c 17.407
_cell_angle_alpha 90
_cell_angle_beta 90
_cell_angle_gamma 90
_space_group_name_H-M_alt 'P 1'
_space_group_name_Hall 'P 1'
loop_
    _symmetry_equiv_pos_as_xyz
    x,y,z
loop_
    _atom_site_label
    _atom_site_type_symbol
    _atom_site_fract_x
    _atom_site_fract_y
    _atom_site_fract_z
    _atom_site_occupancy
    Ca1      Ca       0.37430    0.53199    0.45845    1.000
    Ca2      Ca       0.26145    0.64185    0.63571    1.000
    Ca3      Ca       0.12570    0.03199    0.04155    1.000
    Ca4      Ca       0.23855    0.14185    0.86429    1.000
    Ca5      Ca       0.62570    0.96801    0.45845    1.000
    Ca6      Ca       0.73855    0.85815    0.63571    1.000
    Ca7      Ca       0.87430    0.46801    0.04155    1.000
    Ca8      Ca       0.76145    0.35815    0.86429    1.000
    Ca9      Ca       0.62570    0.46801    0.54155    1.000
    Ca10     Ca       0.73855    0.35815    0.36429    1.000
    Ca11     Ca       0.87430    0.96801    0.95845    1.000
    Ca12     Ca       0.76145    0.85815    0.13571    1.000
    Ca13     Ca       0.37430    0.03199    0.54155    1.000
    Ca14     Ca       0.26145    0.14185    0.36429    1.000
    Ca15     Ca       0.12570    0.53199    0.95845    1.000
    Ca16     Ca       0.23855    0.64185    0.13571    1.000
    H1       H        0.29640    0.31600    0.69440    1.000
    H2       H        0.40350    0.27780    0.44230    1.000
    H3       H        0.20360    0.81600    0.80560    1.000
    H4       H        0.09650    0.77780    0.05770    1.000
    H5       H        0.70360    0.18400    0.69440    1.000
    H6       H        0.59650    0.22220    0.44230    1.000
    H7       H        0.79640    0.68400    0.80560    1.000
    H8       H        0.90350    0.72220    0.05770    1.000
    H9       H        0.70360    0.68400    0.30560    1.000
    H10      H        0.59650    0.72220    0.55770    1.000
    H11      H        0.79640    0.18400    0.19440    1.000
    H12      H        0.90350    0.22220    0.94230    1.000
    H13      H        0.29640    0.81600    0.30560    1.000
    H14      H        0.40350    0.77780    0.55770    1.000
    H15      H        0.20360    0.31600    0.19440    1.000
    H16      H        0.09650    0.27780    0.94230    1.000
    C1       C        0.37270    0.36682    0.60606    1.000
    C2       C        0.31870    0.30787    0.64416    1.000
    C3       C        0.29770    0.23640    0.60736    1.000
    C4       C        0.32989    0.22303    0.52981    1.000
    C5       C        0.38335    0.28498    0.49310    1.000
    C6       C        0.40784    0.35647    0.52875    1.000
    C7       C        0.12730    0.86682    0.89394    1.000
    C8       C        0.18130    0.80787    0.85584    1.000
    C9       C        0.20230    0.73640    0.89264    1.000
    C10      C        0.17011    0.72303    0.97019    1.000
    C11      C        0.11665    0.78498    0.00690    1.000
    C12      C        0.09216    0.85647    0.97125    1.000
    C13      C        0.62730    0.13318    0.60606    1.000
    C14      C        0.68130    0.19213    0.64416    1.000
    C15      C        0.70230    0.26360    0.60736    1.000
    C16      C        0.67011    0.27697    0.52981    1.000
    C17      C        0.61665    0.21502    0.49310    1.000
    C18      C        0.59216    0.14353    0.52875    1.000
    C19      C        0.87270    0.63318    0.89394    1.000
    C20      C        0.81870    0.69213    0.85584    1.000
    C21      C        0.79770    0.76360    0.89264    1.000
    C22      C        0.82989    0.77697    0.97019    1.000
    C23      C        0.88335    0.71502    0.00690    1.000
    C24      C        0.90784    0.64353    0.97125    1.000
    C25      C        0.62730    0.63318    0.39394    1.000
    C26      C        0.68130    0.69213    0.35584    1.000
    C27      C        0.70230    0.76360    0.39264    1.000
    C28      C        0.67011    0.77697    0.47019    1.000
    C29      C        0.61665    0.71502    0.50690    1.000
    C30      C        0.59216    0.64353    0.47125    1.000
    C31      C        0.87270    0.13318    0.10606    1.000
    C32      C        0.81870    0.19213    0.14416    1.000
    C33      C        0.79770    0.26360    0.10736    1.000
    C34      C        0.82989    0.27697    0.02981    1.000
    C35      C        0.88335    0.21502    0.99310    1.000
    C36      C        0.90784    0.14353    0.02875    1.000
    C37      C        0.37270    0.86682    0.39394    1.000
    C38      C        0.31870    0.80787    0.35584    1.000
    C39      C        0.29770    0.73640    0.39264    1.000
    C40      C        0.32989    0.72303    0.47019    1.000
    C41      C        0.38335    0.78498    0.50690    1.000
    C42      C        0.40784    0.85647    0.47125    1.000
    C43      C        0.12730    0.36682    0.10606    1.000
    C44      C        0.18130    0.30787    0.14416    1.000
    C45      C        0.20230    0.23640    0.10736    1.000
    C46      C        0.17011    0.22303    0.02981    1.000
    C47      C        0.11665    0.28498    0.99310    1.000
    C48      C        0.09216    0.35647    0.02875    1.000
    S1       S        0.39521    0.45834    0.64932    1.000
    S2       S        0.22250    0.16419    0.65259    1.000
    S3       S        0.10479    0.95834    0.85068    1.000
    S4       S        0.27750    0.66419    0.84741    1.000
    S5       S        0.60479    0.04166    0.64932    1.000
    S6       S        0.77750    0.33581    0.65259    1.000
    S7       S        0.89521    0.54166    0.85068    1.000
    S8       S        0.72250    0.83581    0.84741    1.000
    S9       S        0.60479    0.54166    0.35068    1.000
    S10      S        0.77750    0.83581    0.34741    1.000
    S11      S        0.89521    0.04166    0.14932    1.000
    S12      S        0.72250    0.33581    0.15259    1.000
    S13      S        0.39521    0.95834    0.35068    1.000
    S14      S        0.22250    0.66419    0.34741    1.000
    S15      S        0.10479    0.45834    0.14932    1.000
    S16      S        0.27750    0.16419    0.15259    1.000
    O1       O        0.34082    0.51707    0.60066    1.000
    O2       O        0.50725    0.47252    0.64931    1.000
    O3       O        0.35182    0.45619    0.72645    1.000
    O4       O        0.20997    0.18839    0.73266    1.000
    O5       O        0.12258    0.16135    0.61272    1.000
    O6       O        0.27720    0.08852    0.64644    1.000
    O7       O        0.46067    0.41310    0.49289    1.000
    O8       O        0.31000    0.15588    0.49484    1.000
    O9       O        0.15918    0.01707    0.89934    1.000
    O10      O        0.99275    0.97252    0.85069    1.000
    O11      O        0.14818    0.95619    0.77355    1.000
    O12      O        0.29003    0.68839    0.76734    1.000
    O13      O        0.37742    0.66135    0.88728    1.000
    O14      O        0.22280    0.58852    0.85356    1.000
    O15      O        0.03933    0.91310    0.00711    1.000
    O16      O        0.19000    0.65588    0.00516    1.000
    O17      O        0.65918    0.98293    0.60066    1.000
    O18      O        0.49275    0.02748    0.64931    1.000
    O19      O        0.64818    0.04381    0.72645    1.000
    O20      O        0.79003    0.31161    0.73266    1.000
    O21      O        0.87742    0.33865    0.61272    1.000
    O22      O        0.72280    0.41148    0.64644    1.000
    O23      O        0.53933    0.08690    0.49289    1.000
    O24      O        0.69000    0.34412    0.49484    1.000
    O25      O        0.84082    0.48293    0.89934    1.000
    O26      O        0.00725    0.52748    0.85069    1.000
    O27      O        0.85182    0.54381    0.77355    1.000
    O28      O        0.70997    0.81161    0.76734    1.000
    O29      O        0.62258    0.83865    0.88728    1.000
    O30      O        0.77720    0.91148    0.85356    1.000
    O31      O        0.96067    0.58690    0.00711    1.000
    O32      O        0.81000    0.84412    0.00516    1.000
    O33      O        0.65918    0.48293    0.39934    1.000
    O34      O        0.49275    0.52748    0.35069    1.000
    O35      O        0.64818    0.54381    0.27355    1.000
    O36      O        0.79003    0.81161    0.26734    1.000
    O37      O        0.87742    0.83865    0.38728    1.000
    O38      O        0.72280    0.91148    0.35356    1.000
    O39      O        0.53933    0.58690    0.50711    1.000
    O40      O        0.69000    0.84412    0.50516    1.000
    O41      O        0.84082    0.98293    0.10066    1.000
    O42      O        0.00725    0.02748    0.14931    1.000
    O43      O        0.85182    0.04381    0.22645    1.000
    O44      O        0.70997    0.31161    0.23266    1.000
    O45      O        0.62258    0.33865    0.11272    1.000
    O46      O        0.77720    0.41148    0.14644    1.000
    O47      O        0.96067    0.08690    0.99289    1.000
    O48      O        0.81000    0.34412    0.99484    1.000
    O49      O        0.34082    0.01707    0.39934    1.000
    O50      O        0.50725    0.97252    0.35069    1.000
    O51      O        0.35182    0.95619    0.27355    1.000
    O52      O        0.20997    0.68839    0.26734    1.000
    O53      O        0.12258    0.66135    0.38728    1.000
    O54      O        0.27720    0.58852    0.35356    1.000
    O55      O        0.46067    0.91310    0.50711    1.000
    O56      O        0.31000    0.65588    0.50516    1.000
    O57      O        0.15918    0.51707    0.10066    1.000
    O58      O        0.99275    0.47252    0.14931    1.000
    O59      O        0.14818    0.45619    0.22645    1.000
    O60      O        0.29003    0.18839    0.23266    1.000
    O61      O        0.37742    0.16135    0.11272    1.000
    O62      O        0.22280    0.08852    0.14644    1.000
    O63      O        0.03933    0.41310    0.99289    1.000
    O64      O        0.19000    0.15588    0.99484    1.000
