# CIF file generated by openbabel 3.1.0, see https://openbabel.org
data_I
_chemical_name_common 'image0'
_cell_length_a 34.936
_cell_length_b 14.9785
_cell_length_c 30.825
_cell_angle_alpha 90
_cell_angle_beta 102.857
_cell_angle_gamma 90
_space_group_name_H-M_alt 'P 1'
_space_group_name_Hall 'P 1'
loop_
    _symmetry_equiv_pos_as_xyz
    x,y,z
loop_
    _atom_site_label
    _atom_site_type_symbol
    _atom_site_fract_x
    _atom_site_fract_y
    _atom_site_fract_z
    _atom_site_occupancy
    C1       C        0.35290    0.41500    0.83180    1.000
    H1       H        0.34690    0.35590    0.83920    1.000
    C2       C        0.32680    0.45960    0.79840    1.000
    H2       H        0.30320    0.43150    0.78330    1.000
    C3       C        0.33560    0.54570    0.78720    1.000
    C4       C        0.37040    0.58320    0.81040    1.000
    H3       H        0.37740    0.64230    0.80410    1.000
    C5       C        0.39490    0.53340    0.84280    1.000
    H4       H        0.41920    0.55870    0.85770    1.000
    C6       C        0.30940    0.59690    0.75150    1.000
    C7       C        0.25620    0.60450    0.69630    1.000
    C8       C        0.29280    0.72710    0.71650    1.000
    C9       C        0.17030    0.55280    0.60270    1.000
    H5       H        0.15430    0.58210    0.57780    1.000
    C10      C        0.19880    0.60080    0.62950    1.000
    H6       H        0.20250    0.66200    0.62350    1.000
    C11      C        0.22280    0.55920    0.66620    1.000
    C12      C        0.21510    0.46990    0.67360    1.000
    H7       H        0.23010    0.43870    0.69850    1.000
    C13      C        0.18460    0.42740    0.64360    1.000
    H8       H        0.17920    0.36660    0.64870    1.000
    C14      C        0.33480    0.95580    0.74160    1.000
    H9       H        0.35610    0.98250    0.76210    1.000
    C15      C        0.33060    0.86360    0.74230    1.000
    H10      H        0.34910    0.82800    0.76220    1.000
    C16      C        0.29900    0.82470    0.71360    1.000
    C17      C        0.27290    0.87950    0.68480    1.000
    H11      H        0.25090    0.85550    0.66430    1.000
    C18      C        0.28010    0.97090    0.68710    1.000
    H12      H        0.26190    0.00870    0.66810    1.000
    C19      C        0.34510    0.22010    0.63790    1.000
    H13      H        0.32050    0.24980    0.63300    1.000
    C20      C        0.36990    0.23780    0.60980    1.000
    H14      H        0.36290    0.28090    0.58670    1.000
    C21      C        0.40520    0.19200    0.61540    1.000
    C22      C        0.41460    0.13330    0.65110    1.000
    H15      H        0.43890    0.10200    0.65680    1.000
    C23      C        0.38920    0.12130    0.67720    1.000
    H16      H        0.39610    0.08050    0.70130    1.000
    C24      C        0.43190    0.20660    0.58450    1.000
    C25      C        0.45050    0.28670    0.53100    1.000
    C26      C        0.48160    0.15840    0.55530    1.000
    C27      C        0.55370    0.97170    0.58700    1.000
    H17      H        0.56010    0.92700    0.60940    1.000
    C28      C        0.52380    0.03090    0.58880    1.000
    H18      H        0.51100    0.02960    0.61290    1.000
    C29      C        0.51290    0.09300    0.55420    1.000
    C30      C        0.53210    0.09110    0.51970    1.000
    H19      H        0.52450    0.13060    0.49520    1.000
    C31      C        0.56230    0.03120    0.52100    1.000
    H20      H        0.57520    0.03010    0.49690    1.000
    C32      C        0.41430    0.49950    0.47340    1.000
    H21      H        0.39350    0.54070    0.47260    1.000
    C33      C        0.41740    0.42630    0.50090    1.000
    H22      H        0.39870    0.41720    0.51860    1.000
    C34      C        0.44720    0.36710    0.50270    1.000
    C35      C        0.47470    0.38300    0.47710    1.000
    H23      H        0.49620    0.34380    0.47820    1.000
    C36      C        0.46970    0.45660    0.45020    1.000
    H24      H        0.48840    0.46740    0.43260    1.000
    N1       N        0.38600    0.45220    0.85390    1.000
    N2       N        0.27830    0.55550    0.72760    1.000
    N3       N        0.26120    0.69080    0.68880    1.000
    N4       N        0.31870    0.68300    0.74690    1.000
    N5       N        0.16330    0.46760    0.60890    1.000
    N6       N        0.31040    0.00840    0.71360    1.000
    N7       N        0.35450    0.16300    0.67150    1.000
    N8       N        0.45960    0.14460    0.58520    1.000
    N9       N        0.42570    0.27810    0.55830    1.000
    N10      N        0.47800    0.22710    0.52730    1.000
    N11      N        0.57390    0.97520    0.55450    1.000
    N12      N        0.44010    0.51420    0.44740    1.000
    Zn1      Zn       0.31520    0.14670    0.71270    1.000
    I1       I        0.24911    0.22030    0.68216    1.000
    I2       I        0.35704    0.18710    0.78856    1.000
    Zn2      Zn       0.62460    0.89940    0.55930    1.000
    I3       I        0.61381    0.75222    0.59602    1.000
    I4       I        0.64923    0.91950    0.48833    1.000
    Zn3      Zn       0.42905    0.61541    0.39990    1.000
    I5       I        0.39564    0.73902    0.43378    1.000
    I6       I        0.48766    0.63123    0.36464    1.000
    Zn4      Zn       0.32670    0.14320    0.72230    1.000
    I7       I        0.26206    0.22870    0.69690    1.000
    I8       I        0.37262    0.17020    0.79693    1.000
    Zn5      Zn       0.62150    0.88980    0.56590    1.000
    I9       I        0.60310    0.75060    0.60330    1.000
    I10      I        0.64870    0.89060    0.49720    1.000
    Zn6      Zn       0.41750    0.62030    0.40590    1.000
    I11      I        0.37820    0.73260    0.43810    1.000
    I12      I        0.47380    0.65580    0.36950    1.000
    C37      C        0.85290    0.91500    0.83180    1.000
    H25      H        0.84690    0.85590    0.83920    1.000
    C38      C        0.82680    0.95960    0.79840    1.000
    H26      H        0.80320    0.93150    0.78330    1.000
    C39      C        0.83560    0.04570    0.78720    1.000
    C40      C        0.87040    0.08320    0.81040    1.000
    H27      H        0.87740    0.14230    0.80410    1.000
    C41      C        0.89490    0.03340    0.84280    1.000
    H28      H        0.91920    0.05870    0.85770    1.000
    C42      C        0.80940    0.09690    0.75150    1.000
    C43      C        0.75620    0.10450    0.69630    1.000
    C44      C        0.79280    0.22710    0.71650    1.000
    C45      C        0.67030    0.05280    0.60270    1.000
    H29      H        0.65430    0.08210    0.57780    1.000
    C46      C        0.69880    0.10080    0.62950    1.000
    H30      H        0.70250    0.16200    0.62350    1.000
    C47      C        0.72280    0.05920    0.66620    1.000
    C48      C        0.71510    0.96990    0.67360    1.000
    H31      H        0.73010    0.93870    0.69850    1.000
    C49      C        0.68460    0.92740    0.64360    1.000
    H32      H        0.67920    0.86660    0.64870    1.000
    C50      C        0.83480    0.45580    0.74160    1.000
    H33      H        0.85610    0.48250    0.76210    1.000
    C51      C        0.83060    0.36360    0.74230    1.000
    H34      H        0.84910    0.32800    0.76220    1.000
    C52      C        0.79900    0.32470    0.71360    1.000
    C53      C        0.77290    0.37950    0.68480    1.000
    H35      H        0.75090    0.35550    0.66430    1.000
    C54      C        0.78010    0.47090    0.68710    1.000
    H36      H        0.76190    0.50870    0.66810    1.000
    C55      C        0.84510    0.72010    0.63790    1.000
    H37      H        0.82050    0.74980    0.63300    1.000
    C56      C        0.86990    0.73780    0.60980    1.000
    H38      H        0.86290    0.78090    0.58670    1.000
    C57      C        0.90520    0.69200    0.61540    1.000
    C58      C        0.91460    0.63330    0.65110    1.000
    H39      H        0.93890    0.60200    0.65680    1.000
    C59      C        0.88920    0.62130    0.67720    1.000
    H40      H        0.89610    0.58050    0.70130    1.000
    C60      C        0.93190    0.70660    0.58450    1.000
    C61      C        0.95050    0.78670    0.53100    1.000
    C62      C        0.98160    0.65840    0.55530    1.000
    C63      C        0.05370    0.47170    0.58700    1.000
    H41      H        0.06010    0.42700    0.60940    1.000
    C64      C        0.02380    0.53090    0.58880    1.000
    H42      H        0.01100    0.52960    0.61290    1.000
    C65      C        0.01290    0.59300    0.55420    1.000
    C66      C        0.03210    0.59110    0.51970    1.000
    H43      H        0.02450    0.63060    0.49520    1.000
    C67      C        0.06230    0.53120    0.52100    1.000
    H44      H        0.07520    0.53010    0.49690    1.000
    C68      C        0.91430    0.99950    0.47340    1.000
    H45      H        0.89350    0.04070    0.47260    1.000
    C69      C        0.91740    0.92630    0.50090    1.000
    H46      H        0.89870    0.91720    0.51860    1.000
    C70      C        0.94720    0.86710    0.50270    1.000
    C71      C        0.97470    0.88300    0.47710    1.000
    H47      H        0.99620    0.84380    0.47820    1.000
    C72      C        0.96970    0.95660    0.45020    1.000
    H48      H        0.98840    0.96740    0.43260    1.000
    N13      N        0.88600    0.95220    0.85390    1.000
    N14      N        0.77830    0.05550    0.72760    1.000
    N15      N        0.76120    0.19080    0.68880    1.000
    N16      N        0.81870    0.18300    0.74690    1.000
    N17      N        0.66330    0.96760    0.60890    1.000
    N18      N        0.81040    0.50840    0.71360    1.000
    N19      N        0.85450    0.66300    0.67150    1.000
    N20      N        0.95960    0.64460    0.58520    1.000
    N21      N        0.92570    0.77810    0.55830    1.000
    N22      N        0.97800    0.72710    0.52730    1.000
    N23      N        0.07390    0.47520    0.55450    1.000
    N24      N        0.94010    0.01420    0.44740    1.000
    Zn7      Zn       0.81520    0.64670    0.71270    1.000
    I13      I        0.74911    0.72030    0.68216    1.000
    I14      I        0.85704    0.68710    0.78856    1.000
    Zn8      Zn       0.12460    0.39940    0.55930    1.000
    I15      I        0.11381    0.25222    0.59602    1.000
    I16      I        0.14923    0.41950    0.48833    1.000
    Zn9      Zn       0.92905    0.11541    0.39990    1.000
    I17      I        0.89564    0.23902    0.43378    1.000
    I18      I        0.98766    0.13123    0.36464    1.000
    Zn10     Zn       0.82670    0.64320    0.72230    1.000
    I19      I        0.76206    0.72870    0.69690    1.000
    I20      I        0.87262    0.67020    0.79693    1.000
    Zn11     Zn       0.12150    0.38980    0.56590    1.000
    I21      I        0.10310    0.25060    0.60330    1.000
    I22      I        0.14870    0.39060    0.49720    1.000
    Zn12     Zn       0.91750    0.12030    0.40590    1.000
    I23      I        0.87820    0.23260    0.43810    1.000
    I24      I        0.97380    0.15580    0.36950    1.000
    C73      C        0.35290    0.58500    0.33180    1.000
    H49      H        0.34690    0.64410    0.33920    1.000
    C74      C        0.32680    0.54040    0.29840    1.000
    H50      H        0.30320    0.56850    0.28330    1.000
    C75      C        0.33560    0.45430    0.28720    1.000
    C76      C        0.37040    0.41680    0.31040    1.000
    H51      H        0.37740    0.35770    0.30410    1.000
    C77      C        0.39490    0.46660    0.34280    1.000
    H52      H        0.41920    0.44130    0.35770    1.000
    C78      C        0.30940    0.40310    0.25150    1.000
    C79      C        0.25620    0.39550    0.19630    1.000
    C80      C        0.29280    0.27290    0.21650    1.000
    C81      C        0.17030    0.44720    0.10270    1.000
    H53      H        0.15430    0.41790    0.07780    1.000
    C82      C        0.19880    0.39920    0.12950    1.000
    H54      H        0.20250    0.33800    0.12350    1.000
    C83      C        0.22280    0.44080    0.16620    1.000
    C84      C        0.21510    0.53010    0.17360    1.000
    H55      H        0.23010    0.56130    0.19850    1.000
    C85      C        0.18460    0.57260    0.14360    1.000
    H56      H        0.17920    0.63340    0.14870    1.000
    C86      C        0.33480    0.04420    0.24160    1.000
    H57      H        0.35610    0.01750    0.26210    1.000
    C87      C        0.33060    0.13640    0.24230    1.000
    H58      H        0.34910    0.17200    0.26220    1.000
    C88      C        0.29900    0.17530    0.21360    1.000
    C89      C        0.27290    0.12050    0.18480    1.000
    H59      H        0.25090    0.14450    0.16430    1.000
    C90      C        0.28010    0.02910    0.18710    1.000
    H60      H        0.26190    0.99130    0.16810    1.000
    C91      C        0.34510    0.77990    0.13790    1.000
    H61      H        0.32050    0.75020    0.13300    1.000
    C92      C        0.36990    0.76220    0.10980    1.000
    H62      H        0.36290    0.71910    0.08670    1.000
    C93      C        0.40520    0.80800    0.11540    1.000
    C94      C        0.41460    0.86670    0.15110    1.000
    H63      H        0.43890    0.89800    0.15680    1.000
    C95      C        0.38920    0.87870    0.17720    1.000
    H64      H        0.39610    0.91950    0.20130    1.000
    C96      C        0.43190    0.79340    0.08450    1.000
    C97      C        0.45050    0.71330    0.03100    1.000
    C98      C        0.48160    0.84160    0.05530    1.000
    C99      C        0.55370    0.02830    0.08700    1.000
    H65      H        0.56010    0.07300    0.10940    1.000
    C100     C        0.52380    0.96910    0.08880    1.000
    H66      H        0.51100    0.97040    0.11290    1.000
    C101     C        0.51290    0.90700    0.05420    1.000
    C102     C        0.53210    0.90890    0.01970    1.000
    H67      H        0.52450    0.86940    0.99520    1.000
    C103     C        0.56230    0.96880    0.02100    1.000
    H68      H        0.57520    0.96990    0.99690    1.000
    C104     C        0.41430    0.50050    0.97340    1.000
    H69      H        0.39350    0.45930    0.97260    1.000
    C105     C        0.41740    0.57370    0.00090    1.000
    H70      H        0.39870    0.58280    0.01860    1.000
    C106     C        0.44720    0.63290    0.00270    1.000
    C107     C        0.47470    0.61700    0.97710    1.000
    H71      H        0.49620    0.65620    0.97820    1.000
    C108     C        0.46970    0.54340    0.95020    1.000
    H72      H        0.48840    0.53260    0.93260    1.000
    N25      N        0.38600    0.54780    0.35390    1.000
    N26      N        0.27830    0.44450    0.22760    1.000
    N27      N        0.26120    0.30920    0.18880    1.000
    N28      N        0.31870    0.31700    0.24690    1.000
    N29      N        0.16330    0.53240    0.10890    1.000
    N30      N        0.31040    0.99160    0.21360    1.000
    N31      N        0.35450    0.83700    0.17150    1.000
    N32      N        0.45960    0.85540    0.08520    1.000
    N33      N        0.42570    0.72190    0.05830    1.000
    N34      N        0.47800    0.77290    0.02730    1.000
    N35      N        0.57390    0.02480    0.05450    1.000
    N36      N        0.44010    0.48580    0.94740    1.000
    Zn13     Zn       0.31520    0.85330    0.21270    1.000
    I25      I        0.24911    0.77970    0.18216    1.000
    I26      I        0.35704    0.81290    0.28856    1.000
    Zn14     Zn       0.62460    0.10060    0.05930    1.000
    I27      I        0.61381    0.24778    0.09602    1.000
    I28      I        0.64923    0.08050    0.98833    1.000
    Zn15     Zn       0.42905    0.38459    0.89990    1.000
    I29      I        0.39564    0.26098    0.93378    1.000
    I30      I        0.48766    0.36877    0.86464    1.000
    Zn16     Zn       0.32670    0.85680    0.22230    1.000
    I31      I        0.26206    0.77130    0.19690    1.000
    I32      I        0.37262    0.82980    0.29693    1.000
    Zn17     Zn       0.62150    0.11020    0.06590    1.000
    I33      I        0.60310    0.24940    0.10330    1.000
    I34      I        0.64870    0.10940    0.99720    1.000
    Zn18     Zn       0.41750    0.37970    0.90590    1.000
    I35      I        0.37820    0.26740    0.93810    1.000
    I36      I        0.47380    0.34420    0.86950    1.000
    C109     C        0.85290    0.08500    0.33180    1.000
    H73      H        0.84690    0.14410    0.33920    1.000
    C110     C        0.82680    0.04040    0.29840    1.000
    H74      H        0.80320    0.06850    0.28330    1.000
    C111     C        0.83560    0.95430    0.28720    1.000
    C112     C        0.87040    0.91680    0.31040    1.000
    H75      H        0.87740    0.85770    0.30410    1.000
    C113     C        0.89490    0.96660    0.34280    1.000
    H76      H        0.91920    0.94130    0.35770    1.000
    C114     C        0.80940    0.90310    0.25150    1.000
    C115     C        0.75620    0.89550    0.19630    1.000
    C116     C        0.79280    0.77290    0.21650    1.000
    C117     C        0.67030    0.94720    0.10270    1.000
    H77      H        0.65430    0.91790    0.07780    1.000
    C118     C        0.69880    0.89920    0.12950    1.000
    H78      H        0.70250    0.83800    0.12350    1.000
    C119     C        0.72280    0.94080    0.16620    1.000
    C120     C        0.71510    0.03010    0.17360    1.000
    H79      H        0.73010    0.06130    0.19850    1.000
    C121     C        0.68460    0.07260    0.14360    1.000
    H80      H        0.67920    0.13340    0.14870    1.000
    C122     C        0.83480    0.54420    0.24160    1.000
    H81      H        0.85610    0.51750    0.26210    1.000
    C123     C        0.83060    0.63640    0.24230    1.000
    H82      H        0.84910    0.67200    0.26220    1.000
    C124     C        0.79900    0.67530    0.21360    1.000
    C125     C        0.77290    0.62050    0.18480    1.000
    H83      H        0.75090    0.64450    0.16430    1.000
    C126     C        0.78010    0.52910    0.18710    1.000
    H84      H        0.76190    0.49130    0.16810    1.000
    C127     C        0.84510    0.27990    0.13790    1.000
    H85      H        0.82050    0.25020    0.13300    1.000
    C128     C        0.86990    0.26220    0.10980    1.000
    H86      H        0.86290    0.21910    0.08670    1.000
    C129     C        0.90520    0.30800    0.11540    1.000
    C130     C        0.91460    0.36670    0.15110    1.000
    H87      H        0.93890    0.39800    0.15680    1.000
    C131     C        0.88920    0.37870    0.17720    1.000
    H88      H        0.89610    0.41950    0.20130    1.000
    C132     C        0.93190    0.29340    0.08450    1.000
    C133     C        0.95050    0.21330    0.03100    1.000
    C134     C        0.98160    0.34160    0.05530    1.000
    C135     C        0.05370    0.52830    0.08700    1.000
    H89      H        0.06010    0.57300    0.10940    1.000
    C136     C        0.02380    0.46910    0.08880    1.000
    H90      H        0.01100    0.47040    0.11290    1.000
    C137     C        0.01290    0.40700    0.05420    1.000
    C138     C        0.03210    0.40890    0.01970    1.000
    H91      H        0.02450    0.36940    0.99520    1.000
    C139     C        0.06230    0.46880    0.02100    1.000
    H92      H        0.07520    0.46990    0.99690    1.000
    C140     C        0.91430    0.00050    0.97340    1.000
    H93      H        0.89350    0.95930    0.97260    1.000
    C141     C        0.91740    0.07370    0.00090    1.000
    H94      H        0.89870    0.08280    0.01860    1.000
    C142     C        0.94720    0.13290    0.00270    1.000
    C143     C        0.97470    0.11700    0.97710    1.000
    H95      H        0.99620    0.15620    0.97820    1.000
    C144     C        0.96970    0.04340    0.95020    1.000
    H96      H        0.98840    0.03260    0.93260    1.000
    N37      N        0.88600    0.04780    0.35390    1.000
    N38      N        0.77830    0.94450    0.22760    1.000
    N39      N        0.76120    0.80920    0.18880    1.000
    N40      N        0.81870    0.81700    0.24690    1.000
    N41      N        0.66330    0.03240    0.10890    1.000
    N42      N        0.81040    0.49160    0.21360    1.000
    N43      N        0.85450    0.33700    0.17150    1.000
    N44      N        0.95960    0.35540    0.08520    1.000
    N45      N        0.92570    0.22190    0.05830    1.000
    N46      N        0.97800    0.27290    0.02730    1.000
    N47      N        0.07390    0.52480    0.05450    1.000
    N48      N        0.94010    0.98580    0.94740    1.000
    Zn19     Zn       0.81520    0.35330    0.21270    1.000
    I37      I        0.74911    0.27970    0.18216    1.000
    I38      I        0.85704    0.31290    0.28856    1.000
    Zn20     Zn       0.12460    0.60060    0.05930    1.000
    I39      I        0.11381    0.74778    0.09602    1.000
    I40      I        0.14923    0.58050    0.98833    1.000
    Zn21     Zn       0.92905    0.88459    0.89990    1.000
    I41      I        0.89564    0.76098    0.93378    1.000
    I42      I        0.98766    0.86877    0.86464    1.000
    Zn22     Zn       0.82670    0.35680    0.22230    1.000
    I43      I        0.76206    0.27130    0.19690    1.000
    I44      I        0.87262    0.32980    0.29693    1.000
    Zn23     Zn       0.12150    0.61020    0.06590    1.000
    I45      I        0.10310    0.74940    0.10330    1.000
    I46      I        0.14870    0.60940    0.99720    1.000
    Zn24     Zn       0.91750    0.87970    0.90590    1.000
    I47      I        0.87820    0.76740    0.93810    1.000
    I48      I        0.97380    0.84420    0.86950    1.000
    C145     C        0.64710    0.41500    0.66820    1.000
    H97      H        0.65310    0.35590    0.66080    1.000
    C146     C        0.67320    0.45960    0.70160    1.000
    H98      H        0.69680    0.43150    0.71670    1.000
    C147     C        0.66440    0.54570    0.71280    1.000
    C148     C        0.62960    0.58320    0.68960    1.000
    H99      H        0.62260    0.64230    0.69590    1.000
    C149     C        0.60510    0.53340    0.65720    1.000
    H100     H        0.58080    0.55870    0.64230    1.000
    C150     C        0.69060    0.59690    0.74850    1.000
    C151     C        0.74380    0.60450    0.80370    1.000
    C152     C        0.70720    0.72710    0.78350    1.000
    C153     C        0.82970    0.55280    0.89730    1.000
    H101     H        0.84570    0.58210    0.92220    1.000
    C154     C        0.80120    0.60080    0.87050    1.000
    H102     H        0.79750    0.66200    0.87650    1.000
    C155     C        0.77720    0.55920    0.83380    1.000
    C156     C        0.78490    0.46990    0.82640    1.000
    H103     H        0.76990    0.43870    0.80150    1.000
    C157     C        0.81540    0.42740    0.85640    1.000
    H104     H        0.82080    0.36660    0.85130    1.000
    C158     C        0.66520    0.95580    0.75840    1.000
    H105     H        0.64390    0.98250    0.73790    1.000
    C159     C        0.66940    0.86360    0.75770    1.000
    H106     H        0.65090    0.82800    0.73780    1.000
    C160     C        0.70100    0.82470    0.78640    1.000
    C161     C        0.72710    0.87950    0.81520    1.000
    H107     H        0.74910    0.85550    0.83570    1.000
    C162     C        0.71990    0.97090    0.81290    1.000
    H108     H        0.73810    0.00870    0.83190    1.000
    C163     C        0.65490    0.22010    0.86210    1.000
    H109     H        0.67950    0.24980    0.86700    1.000
    C164     C        0.63010    0.23780    0.89020    1.000
    H110     H        0.63710    0.28090    0.91330    1.000
    C165     C        0.59480    0.19200    0.88460    1.000
    C166     C        0.58540    0.13330    0.84890    1.000
    H111     H        0.56110    0.10200    0.84320    1.000
    C167     C        0.61080    0.12130    0.82280    1.000
    H112     H        0.60390    0.08050    0.79870    1.000
    C168     C        0.56810    0.20660    0.91550    1.000
    C169     C        0.54950    0.28670    0.96900    1.000
    C170     C        0.51840    0.15840    0.94470    1.000
    C171     C        0.44630    0.97170    0.91300    1.000
    H113     H        0.43990    0.92700    0.89060    1.000
    C172     C        0.47620    0.03090    0.91120    1.000
    H114     H        0.48900    0.02960    0.88710    1.000
    C173     C        0.48710    0.09300    0.94580    1.000
    C174     C        0.46790    0.09110    0.98030    1.000
    H115     H        0.47550    0.13060    0.00480    1.000
    C175     C        0.43770    0.03120    0.97900    1.000
    H116     H        0.42480    0.03010    0.00310    1.000
    C176     C        0.58570    0.49950    0.02660    1.000
    H117     H        0.60650    0.54070    0.02740    1.000
    C177     C        0.58260    0.42630    0.99910    1.000
    H118     H        0.60130    0.41720    0.98140    1.000
    C178     C        0.55280    0.36710    0.99730    1.000
    C179     C        0.52530    0.38300    0.02290    1.000
    H119     H        0.50380    0.34380    0.02180    1.000
    C180     C        0.53030    0.45660    0.04980    1.000
    H120     H        0.51160    0.46740    0.06740    1.000
    N49      N        0.61400    0.45220    0.64610    1.000
    N50      N        0.72170    0.55550    0.77240    1.000
    N51      N        0.73880    0.69080    0.81120    1.000
    N52      N        0.68130    0.68300    0.75310    1.000
    N53      N        0.83670    0.46760    0.89110    1.000
    N54      N        0.68960    0.00840    0.78640    1.000
    N55      N        0.64550    0.16300    0.82850    1.000
    N56      N        0.54040    0.14460    0.91480    1.000
    N57      N        0.57430    0.27810    0.94170    1.000
    N58      N        0.52200    0.22710    0.97270    1.000
    N59      N        0.42610    0.97520    0.94550    1.000
    N60      N        0.55990    0.51420    0.05260    1.000
    Zn25     Zn       0.68480    0.14670    0.78730    1.000
    I49      I        0.75089    0.22030    0.81784    1.000
    I50      I        0.64296    0.18710    0.71144    1.000
    Zn26     Zn       0.37540    0.89940    0.94070    1.000
    I51      I        0.38619    0.75222    0.90398    1.000
    I52      I        0.35077    0.91950    0.01167    1.000
    Zn27     Zn       0.57095    0.61541    0.10010    1.000
    I53      I        0.60436    0.73902    0.06622    1.000
    I54      I        0.51234    0.63123    0.13536    1.000
    Zn28     Zn       0.67330    0.14320    0.77770    1.000
    I55      I        0.73794    0.22870    0.80310    1.000
    I56      I        0.62738    0.17020    0.70307    1.000
    Zn29     Zn       0.37850    0.88980    0.93410    1.000
    I57      I        0.39690    0.75060    0.89670    1.000
    I58      I        0.35130    0.89060    0.00280    1.000
    Zn30     Zn       0.58250    0.62030    0.09410    1.000
    I59      I        0.62180    0.73260    0.06190    1.000
    I60      I        0.52620    0.65580    0.13050    1.000
    C181     C        0.14710    0.91500    0.66820    1.000
    H121     H        0.15310    0.85590    0.66080    1.000
    C182     C        0.17320    0.95960    0.70160    1.000
    H122     H        0.19680    0.93150    0.71670    1.000
    C183     C        0.16440    0.04570    0.71280    1.000
    C184     C        0.12960    0.08320    0.68960    1.000
    H123     H        0.12260    0.14230    0.69590    1.000
    C185     C        0.10510    0.03340    0.65720    1.000
    H124     H        0.08080    0.05870    0.64230    1.000
    C186     C        0.19060    0.09690    0.74850    1.000
    C187     C        0.24380    0.10450    0.80370    1.000
    C188     C        0.20720    0.22710    0.78350    1.000
    C189     C        0.32970    0.05280    0.89730    1.000
    H125     H        0.34570    0.08210    0.92220    1.000
    C190     C        0.30120    0.10080    0.87050    1.000
    H126     H        0.29750    0.16200    0.87650    1.000
    C191     C        0.27720    0.05920    0.83380    1.000
    C192     C        0.28490    0.96990    0.82640    1.000
    H127     H        0.26990    0.93870    0.80150    1.000
    C193     C        0.31540    0.92740    0.85640    1.000
    H128     H        0.32080    0.86660    0.85130    1.000
    C194     C        0.16520    0.45580    0.75840    1.000
    H129     H        0.14390    0.48250    0.73790    1.000
    C195     C        0.16940    0.36360    0.75770    1.000
    H130     H        0.15090    0.32800    0.73780    1.000
    C196     C        0.20100    0.32470    0.78640    1.000
    C197     C        0.22710    0.37950    0.81520    1.000
    H131     H        0.24910    0.35550    0.83570    1.000
    C198     C        0.21990    0.47090    0.81290    1.000
    H132     H        0.23810    0.50870    0.83190    1.000
    C199     C        0.15490    0.72010    0.86210    1.000
    H133     H        0.17950    0.74980    0.86700    1.000
    C200     C        0.13010    0.73780    0.89020    1.000
    H134     H        0.13710    0.78090    0.91330    1.000
    C201     C        0.09480    0.69200    0.88460    1.000
    C202     C        0.08540    0.63330    0.84890    1.000
    H135     H        0.06110    0.60200    0.84320    1.000
    C203     C        0.11080    0.62130    0.82280    1.000
    H136     H        0.10390    0.58050    0.79870    1.000
    C204     C        0.06810    0.70660    0.91550    1.000
    C205     C        0.04950    0.78670    0.96900    1.000
    C206     C        0.01840    0.65840    0.94470    1.000
    C207     C        0.94630    0.47170    0.91300    1.000
    H137     H        0.93990    0.42700    0.89060    1.000
    C208     C        0.97620    0.53090    0.91120    1.000
    H138     H        0.98900    0.52960    0.88710    1.000
    C209     C        0.98710    0.59300    0.94580    1.000
    C210     C        0.96790    0.59110    0.98030    1.000
    H139     H        0.97550    0.63060    0.00480    1.000
    C211     C        0.93770    0.53120    0.97900    1.000
    H140     H        0.92480    0.53010    0.00310    1.000
    C212     C        0.08570    0.99950    0.02660    1.000
    H141     H        0.10650    0.04070    0.02740    1.000
    C213     C        0.08260    0.92630    0.99910    1.000
    H142     H        0.10130    0.91720    0.98140    1.000
    C214     C        0.05280    0.86710    0.99730    1.000
    C215     C        0.02530    0.88300    0.02290    1.000
    H143     H        0.00380    0.84380    0.02180    1.000
    C216     C        0.03030    0.95660    0.04980    1.000
    H144     H        0.01160    0.96740    0.06740    1.000
    N61      N        0.11400    0.95220    0.64610    1.000
    N62      N        0.22170    0.05550    0.77240    1.000
    N63      N        0.23880    0.19080    0.81120    1.000
    N64      N        0.18130    0.18300    0.75310    1.000
    N65      N        0.33670    0.96760    0.89110    1.000
    N66      N        0.18960    0.50840    0.78640    1.000
    N67      N        0.14550    0.66300    0.82850    1.000
    N68      N        0.04040    0.64460    0.91480    1.000
    N69      N        0.07430    0.77810    0.94170    1.000
    N70      N        0.02200    0.72710    0.97270    1.000
    N71      N        0.92610    0.47520    0.94550    1.000
    N72      N        0.05990    0.01420    0.05260    1.000
    Zn31     Zn       0.18480    0.64670    0.78730    1.000
    I61      I        0.25089    0.72030    0.81784    1.000
    I62      I        0.14296    0.68710    0.71144    1.000
    Zn32     Zn       0.87540    0.39940    0.94070    1.000
    I63      I        0.88619    0.25222    0.90398    1.000
    I64      I        0.85077    0.41950    0.01167    1.000
    Zn33     Zn       0.07095    0.11541    0.10010    1.000
    I65      I        0.10436    0.23902    0.06622    1.000
    I66      I        0.01234    0.13123    0.13536    1.000
    Zn34     Zn       0.17330    0.64320    0.77770    1.000
    I67      I        0.23794    0.72870    0.80310    1.000
    I68      I        0.12738    0.67020    0.70307    1.000
    Zn35     Zn       0.87850    0.38980    0.93410    1.000
    I69      I        0.89690    0.25060    0.89670    1.000
    I70      I        0.85130    0.39060    0.00280    1.000
    Zn36     Zn       0.08250    0.12030    0.09410    1.000
    I71      I        0.12180    0.23260    0.06190    1.000
    I72      I        0.02620    0.15580    0.13050    1.000
    C217     C        0.64710    0.58500    0.16820    1.000
    H145     H        0.65310    0.64410    0.16080    1.000
    C218     C        0.67320    0.54040    0.20160    1.000
    H146     H        0.69680    0.56850    0.21670    1.000
    C219     C        0.66440    0.45430    0.21280    1.000
    C220     C        0.62960    0.41680    0.18960    1.000
    H147     H        0.62260    0.35770    0.19590    1.000
    C221     C        0.60510    0.46660    0.15720    1.000
    H148     H        0.58080    0.44130    0.14230    1.000
    C222     C        0.69060    0.40310    0.24850    1.000
    C223     C        0.74380    0.39550    0.30370    1.000
    C224     C        0.70720    0.27290    0.28350    1.000
    C225     C        0.82970    0.44720    0.39730    1.000
    H149     H        0.84570    0.41790    0.42220    1.000
    C226     C        0.80120    0.39920    0.37050    1.000
    H150     H        0.79750    0.33800    0.37650    1.000
    C227     C        0.77720    0.44080    0.33380    1.000
    C228     C        0.78490    0.53010    0.32640    1.000
    H151     H        0.76990    0.56130    0.30150    1.000
    C229     C        0.81540    0.57260    0.35640    1.000
    H152     H        0.82080    0.63340    0.35130    1.000
    C230     C        0.66520    0.04420    0.25840    1.000
    H153     H        0.64390    0.01750    0.23790    1.000
    C231     C        0.66940    0.13640    0.25770    1.000
    H154     H        0.65090    0.17200    0.23780    1.000
    C232     C        0.70100    0.17530    0.28640    1.000
    C233     C        0.72710    0.12050    0.31520    1.000
    H155     H        0.74910    0.14450    0.33570    1.000
    C234     C        0.71990    0.02910    0.31290    1.000
    H156     H        0.73810    0.99130    0.33190    1.000
    C235     C        0.65490    0.77990    0.36210    1.000
    H157     H        0.67950    0.75020    0.36700    1.000
    C236     C        0.63010    0.76220    0.39020    1.000
    H158     H        0.63710    0.71910    0.41330    1.000
    C237     C        0.59480    0.80800    0.38460    1.000
    C238     C        0.58540    0.86670    0.34890    1.000
    H159     H        0.56110    0.89800    0.34320    1.000
    C239     C        0.61080    0.87870    0.32280    1.000
    H160     H        0.60390    0.91950    0.29870    1.000
    C240     C        0.56810    0.79340    0.41550    1.000
    C241     C        0.54950    0.71330    0.46900    1.000
    C242     C        0.51840    0.84160    0.44470    1.000
    C243     C        0.44630    0.02830    0.41300    1.000
    H161     H        0.43990    0.07300    0.39060    1.000
    C244     C        0.47620    0.96910    0.41120    1.000
    H162     H        0.48900    0.97040    0.38710    1.000
    C245     C        0.48710    0.90700    0.44580    1.000
    C246     C        0.46790    0.90890    0.48030    1.000
    H163     H        0.47550    0.86940    0.50480    1.000
    C247     C        0.43770    0.96880    0.47900    1.000
    H164     H        0.42480    0.96990    0.50310    1.000
    C248     C        0.58570    0.50050    0.52660    1.000
    H165     H        0.60650    0.45930    0.52740    1.000
    C249     C        0.58260    0.57370    0.49910    1.000
    H166     H        0.60130    0.58280    0.48140    1.000
    C250     C        0.55280    0.63290    0.49730    1.000
    C251     C        0.52530    0.61700    0.52290    1.000
    H167     H        0.50380    0.65620    0.52180    1.000
    C252     C        0.53030    0.54340    0.54980    1.000
    H168     H        0.51160    0.53260    0.56740    1.000
    N73      N        0.61400    0.54780    0.14610    1.000
    N74      N        0.72170    0.44450    0.27240    1.000
    N75      N        0.73880    0.30920    0.31120    1.000
    N76      N        0.68130    0.31700    0.25310    1.000
    N77      N        0.83670    0.53240    0.39110    1.000
    N78      N        0.68960    0.99160    0.28640    1.000
    N79      N        0.64550    0.83700    0.32850    1.000
    N80      N        0.54040    0.85540    0.41480    1.000
    N81      N        0.57430    0.72190    0.44170    1.000
    N82      N        0.52200    0.77290    0.47270    1.000
    N83      N        0.42610    0.02480    0.44550    1.000
    N84      N        0.55990    0.48580    0.55260    1.000
    Zn37     Zn       0.68480    0.85330    0.28730    1.000
    I73      I        0.75089    0.77970    0.31784    1.000
    I74      I        0.64296    0.81290    0.21144    1.000
    Zn38     Zn       0.37540    0.10060    0.44070    1.000
    I75      I        0.38619    0.24778    0.40398    1.000
    I76      I        0.35077    0.08050    0.51167    1.000
    Zn39     Zn       0.57095    0.38459    0.60010    1.000
    I77      I        0.60436    0.26098    0.56622    1.000
    I78      I        0.51234    0.36877    0.63536    1.000
    Zn40     Zn       0.67330    0.85680    0.27770    1.000
    I79      I        0.73794    0.77130    0.30310    1.000
    I80      I        0.62738    0.82980    0.20307    1.000
    Zn41     Zn       0.37850    0.11020    0.43410    1.000
    I81      I        0.39690    0.24940    0.39670    1.000
    I82      I        0.35130    0.10940    0.50280    1.000
    Zn42     Zn       0.58250    0.37970    0.59410    1.000
    I83      I        0.62180    0.26740    0.56190    1.000
    I84      I        0.52620    0.34420    0.63050    1.000
    C253     C        0.14710    0.08500    0.16820    1.000
    H169     H        0.15310    0.14410    0.16080    1.000
    C254     C        0.17320    0.04040    0.20160    1.000
    H170     H        0.19680    0.06850    0.21670    1.000
    C255     C        0.16440    0.95430    0.21280    1.000
    C256     C        0.12960    0.91680    0.18960    1.000
    H171     H        0.12260    0.85770    0.19590    1.000
    C257     C        0.10510    0.96660    0.15720    1.000
    H172     H        0.08080    0.94130    0.14230    1.000
    C258     C        0.19060    0.90310    0.24850    1.000
    C259     C        0.24380    0.89550    0.30370    1.000
    C260     C        0.20720    0.77290    0.28350    1.000
    C261     C        0.32970    0.94720    0.39730    1.000
    H173     H        0.34570    0.91790    0.42220    1.000
    C262     C        0.30120    0.89920    0.37050    1.000
    H174     H        0.29750    0.83800    0.37650    1.000
    C263     C        0.27720    0.94080    0.33380    1.000
    C264     C        0.28490    0.03010    0.32640    1.000
    H175     H        0.26990    0.06130    0.30150    1.000
    C265     C        0.31540    0.07260    0.35640    1.000
    H176     H        0.32080    0.13340    0.35130    1.000
    C266     C        0.16520    0.54420    0.25840    1.000
    H177     H        0.14390    0.51750    0.23790    1.000
    C267     C        0.16940    0.63640    0.25770    1.000
    H178     H        0.15090    0.67200    0.23780    1.000
    C268     C        0.20100    0.67530    0.28640    1.000
    C269     C        0.22710    0.62050    0.31520    1.000
    H179     H        0.24910    0.64450    0.33570    1.000
    C270     C        0.21990    0.52910    0.31290    1.000
    H180     H        0.23810    0.49130    0.33190    1.000
    C271     C        0.15490    0.27990    0.36210    1.000
    H181     H        0.17950    0.25020    0.36700    1.000
    C272     C        0.13010    0.26220    0.39020    1.000
    H182     H        0.13710    0.21910    0.41330    1.000
    C273     C        0.09480    0.30800    0.38460    1.000
    C274     C        0.08540    0.36670    0.34890    1.000
    H183     H        0.06110    0.39800    0.34320    1.000
    C275     C        0.11080    0.37870    0.32280    1.000
    H184     H        0.10390    0.41950    0.29870    1.000
    C276     C        0.06810    0.29340    0.41550    1.000
    C277     C        0.04950    0.21330    0.46900    1.000
    C278     C        0.01840    0.34160    0.44470    1.000
    C279     C        0.94630    0.52830    0.41300    1.000
    H185     H        0.93990    0.57300    0.39060    1.000
    C280     C        0.97620    0.46910    0.41120    1.000
    H186     H        0.98900    0.47040    0.38710    1.000
    C281     C        0.98710    0.40700    0.44580    1.000
    C282     C        0.96790    0.40890    0.48030    1.000
    H187     H        0.97550    0.36940    0.50480    1.000
    C283     C        0.93770    0.46880    0.47900    1.000
    H188     H        0.92480    0.46990    0.50310    1.000
    C284     C        0.08570    0.00050    0.52660    1.000
    H189     H        0.10650    0.95930    0.52740    1.000
    C285     C        0.08260    0.07370    0.49910    1.000
    H190     H        0.10130    0.08280    0.48140    1.000
    C286     C        0.05280    0.13290    0.49730    1.000
    C287     C        0.02530    0.11700    0.52290    1.000
    H191     H        0.00380    0.15620    0.52180    1.000
    C288     C        0.03030    0.04340    0.54980    1.000
    H192     H        0.01160    0.03260    0.56740    1.000
    N85      N        0.11400    0.04780    0.14610    1.000
    N86      N        0.22170    0.94450    0.27240    1.000
    N87      N        0.23880    0.80920    0.31120    1.000
    N88      N        0.18130    0.81700    0.25310    1.000
    N89      N        0.33670    0.03240    0.39110    1.000
    N90      N        0.18960    0.49160    0.28640    1.000
    N91      N        0.14550    0.33700    0.32850    1.000
    N92      N        0.04040    0.35540    0.41480    1.000
    N93      N        0.07430    0.22190    0.44170    1.000
    N94      N        0.02200    0.27290    0.47270    1.000
    N95      N        0.92610    0.52480    0.44550    1.000
    N96      N        0.05990    0.98580    0.55260    1.000
    Zn43     Zn       0.18480    0.35330    0.28730    1.000
    I85      I        0.25089    0.27970    0.31784    1.000
    I86      I        0.14296    0.31290    0.21144    1.000
    Zn44     Zn       0.87540    0.60060    0.44070    1.000
    I87      I        0.88619    0.74778    0.40398    1.000
    I88      I        0.85077    0.58050    0.51167    1.000
    Zn45     Zn       0.07095    0.88459    0.60010    1.000
    I89      I        0.10436    0.76098    0.56622    1.000
    I90      I        0.01234    0.86877    0.63536    1.000
    Zn46     Zn       0.17330    0.35680    0.27770    1.000
    I91      I        0.23794    0.27130    0.30310    1.000
    I92      I        0.12738    0.32980    0.20307    1.000
    Zn47     Zn       0.87850    0.61020    0.43410    1.000
    I93      I        0.89690    0.74940    0.39670    1.000
    I94      I        0.85130    0.60940    0.50280    1.000
    Zn48     Zn       0.08250    0.87970    0.59410    1.000
    I95      I        0.12180    0.76740    0.56190    1.000
    I96      I        0.02620    0.84420    0.63050    1.000
