# CIF file generated by openbabel 3.1.0, see https://openbabel.org
data_I
_chemical_name_common 'image0'
_cell_length_a 8.5465
_cell_length_b 15.9683
_cell_length_c 20.726
_cell_angle_alpha 90
_cell_angle_beta 90
_cell_angle_gamma 90
_space_group_name_H-M_alt 'P 1'
_space_group_name_Hall 'P 1'
loop_
    _symmetry_equiv_pos_as_xyz
    x,y,z
loop_
    _atom_site_label
    _atom_site_type_symbol
    _atom_site_fract_x
    _atom_site_fract_y
    _atom_site_fract_z
    _atom_site_occupancy
    Cr1      Cr       0.10970    0.41550    0.21240    1.000
    O1       O        0.29120    0.43940    0.21550    1.000
    N1       N        0.08600    0.91950    0.64790    1.000
    C1       C        0.34100    0.67820    0.39620    1.000
    N2       N        0.42800    0.58090    0.29090    1.000
    C2       C        0.47300    0.66300    0.38700    1.000
    H1       H        0.55030    0.68160    0.41690    1.000
    C3       C        0.29700    0.72660    0.45750    1.000
    C4       C        0.24100    0.76890    0.49960    1.000
    C5       C        0.19600    0.81900    0.55070    1.000
    C6       C        0.10500    0.78400    0.60280    1.000
    H2       H        0.08270    0.72540    0.60410    1.000
    C7       C        0.05200    0.83630    0.65050    1.000
    H3       H        0.99220    0.81460    0.68530    1.000
    C8       C        0.23200    0.89870    0.55090    1.000
    H4       H        0.29640    0.92150    0.51800    1.000
    C9       C        0.17600    0.94780    0.59850    1.000
    H5       H        0.20120    0.00570    0.59750    1.000
    C10      C        0.23400    0.65800    0.34600    1.000
    H6       H        0.13130    0.68080    0.34560    1.000
    C11      C        0.28100    0.60700    0.30080    1.000
    H7       H        0.20390    0.58600    0.27210    1.000
    C12      C        0.52100    0.61100    0.32540    1.000
    H8       H        0.62920    0.60310    0.31600    1.000
    C13      C        0.25900    0.60500    0.38180    1.000
    H9       H        0.17310    0.58900    0.40800    1.000
    C14      C        0.30300    0.55680    0.32920    1.000
    H10      H        0.24630    0.50710    0.31930    1.000
    C15      C        0.51100    0.65360    0.30530    1.000
    H11      H        0.59670    0.67010    0.27920    1.000
    C16      C        0.46700    0.70220    0.35800    1.000
    H12      H        0.52350    0.75190    0.36780    1.000
    Cr2      Cr       0.60970    0.91550    0.71240    1.000
    O2       O        0.79120    0.93940    0.71550    1.000
    N3       N        0.58600    0.41950    0.14790    1.000
    C17      C        0.84100    0.17820    0.89620    1.000
    N4       N        0.92800    0.08090    0.79090    1.000
    C18      C        0.97300    0.16300    0.88700    1.000
    H13      H        0.05030    0.18160    0.91690    1.000
    C19      C        0.79700    0.22660    0.95750    1.000
    C20      C        0.74100    0.26890    0.99960    1.000
    C21      C        0.69600    0.31900    0.05070    1.000
    C22      C        0.60500    0.28400    0.10280    1.000
    H14      H        0.58270    0.22540    0.10410    1.000
    C23      C        0.55200    0.33630    0.15050    1.000
    H15      H        0.49220    0.31460    0.18530    1.000
    C24      C        0.73200    0.39870    0.05090    1.000
    H16      H        0.79640    0.42150    0.01800    1.000
    C25      C        0.67600    0.44780    0.09850    1.000
    H17      H        0.70120    0.50570    0.09750    1.000
    C26      C        0.73400    0.15800    0.84600    1.000
    H18      H        0.63130    0.18080    0.84560    1.000
    C27      C        0.78100    0.10700    0.80080    1.000
    H19      H        0.70390    0.08600    0.77210    1.000
    C28      C        0.02100    0.11100    0.82540    1.000
    H20      H        0.12920    0.10310    0.81600    1.000
    C29      C        0.75900    0.10500    0.88180    1.000
    H21      H        0.67310    0.08900    0.90800    1.000
    C30      C        0.80300    0.05680    0.82920    1.000
    H22      H        0.74630    0.00710    0.81930    1.000
    C31      C        0.01100    0.15360    0.80530    1.000
    H23      H        0.09670    0.17010    0.77920    1.000
    C32      C        0.96700    0.20220    0.85800    1.000
    H24      H        0.02350    0.25190    0.86780    1.000
    Cr3      Cr       0.89030    0.58450    0.21240    1.000
    O3       O        0.70880    0.56060    0.21550    1.000
    N5       N        0.91400    0.08050    0.64790    1.000
    C33      C        0.65900    0.32180    0.39620    1.000
    N6       N        0.57200    0.41910    0.29090    1.000
    C34      C        0.52700    0.33700    0.38700    1.000
    H25      H        0.44970    0.31840    0.41690    1.000
    C35      C        0.70300    0.27340    0.45750    1.000
    C36      C        0.75900    0.23110    0.49960    1.000
    C37      C        0.80400    0.18100    0.55070    1.000
    C38      C        0.89500    0.21600    0.60280    1.000
    H26      H        0.91730    0.27460    0.60410    1.000
    C39      C        0.94800    0.16370    0.65050    1.000
    H27      H        0.00780    0.18540    0.68530    1.000
    C40      C        0.76800    0.10130    0.55090    1.000
    H28      H        0.70360    0.07850    0.51800    1.000
    C41      C        0.82400    0.05220    0.59850    1.000
    H29      H        0.79880    0.99430    0.59750    1.000
    C42      C        0.76600    0.34200    0.34600    1.000
    H30      H        0.86870    0.31920    0.34560    1.000
    C43      C        0.71900    0.39300    0.30080    1.000
    H31      H        0.79610    0.41400    0.27210    1.000
    C44      C        0.47900    0.38900    0.32540    1.000
    H32      H        0.37080    0.39690    0.31600    1.000
    C45      C        0.74100    0.39500    0.38180    1.000
    H33      H        0.82690    0.41100    0.40800    1.000
    C46      C        0.69700    0.44320    0.32920    1.000
    H34      H        0.75370    0.49290    0.31930    1.000
    C47      C        0.48900    0.34640    0.30530    1.000
    H35      H        0.40330    0.32990    0.27920    1.000
    C48      C        0.53300    0.29780    0.35800    1.000
    H36      H        0.47650    0.24810    0.36780    1.000
    Cr4      Cr       0.39030    0.08450    0.71240    1.000
    O4       O        0.20880    0.06060    0.71550    1.000
    N7       N        0.41400    0.58050    0.14790    1.000
    C49      C        0.15900    0.82180    0.89620    1.000
    N8       N        0.07200    0.91910    0.79090    1.000
    C50      C        0.02700    0.83700    0.88700    1.000
    H37      H        0.94970    0.81840    0.91690    1.000
    C51      C        0.20300    0.77340    0.95750    1.000
    C52      C        0.25900    0.73110    0.99960    1.000
    C53      C        0.30400    0.68100    0.05070    1.000
    C54      C        0.39500    0.71600    0.10280    1.000
    H38      H        0.41730    0.77460    0.10410    1.000
    C55      C        0.44800    0.66370    0.15050    1.000
    H39      H        0.50780    0.68540    0.18530    1.000
    C56      C        0.26800    0.60130    0.05090    1.000
    H40      H        0.20360    0.57850    0.01800    1.000
    C57      C        0.32400    0.55220    0.09850    1.000
    H41      H        0.29880    0.49430    0.09750    1.000
    C58      C        0.26600    0.84200    0.84600    1.000
    H42      H        0.36870    0.81920    0.84560    1.000
    C59      C        0.21900    0.89300    0.80080    1.000
    H43      H        0.29610    0.91400    0.77210    1.000
    C60      C        0.97900    0.88900    0.82540    1.000
    H44      H        0.87080    0.89690    0.81600    1.000
    C61      C        0.24100    0.89500    0.88180    1.000
    H45      H        0.32690    0.91100    0.90800    1.000
    C62      C        0.19700    0.94320    0.82920    1.000
    H46      H        0.25370    0.99290    0.81930    1.000
    C63      C        0.98900    0.84640    0.80530    1.000
    H47      H        0.90330    0.82990    0.77920    1.000
    C64      C        0.03300    0.79780    0.85800    1.000
    H48      H        0.97650    0.74810    0.86780    1.000
    Ni1      Ni       0.50000    0.50000    0.21830    1.000
    Ni2      Ni       0.00000    0.00000    0.71830    1.000
    O5       O        0.00000    0.50000    0.24120    1.000
    O6       O        0.50000    0.00000    0.74120    1.000
    Cr5      Cr       0.89030    0.41550    0.78760    1.000
    O7       O        0.70880    0.43940    0.78450    1.000
    N9       N        0.91400    0.91950    0.35210    1.000
    C65      C        0.65900    0.67820    0.60380    1.000
    N10      N        0.57200    0.58090    0.70910    1.000
    C66      C        0.52700    0.66300    0.61300    1.000
    H49      H        0.44970    0.68160    0.58310    1.000
    C67      C        0.70300    0.72660    0.54250    1.000
    C68      C        0.75900    0.76890    0.50040    1.000
    C69      C        0.80400    0.81900    0.44930    1.000
    C70      C        0.89500    0.78400    0.39720    1.000
    H50      H        0.91730    0.72540    0.39590    1.000
    C71      C        0.94800    0.83630    0.34950    1.000
    H51      H        0.00780    0.81460    0.31470    1.000
    C72      C        0.76800    0.89870    0.44910    1.000
    H52      H        0.70360    0.92150    0.48200    1.000
    C73      C        0.82400    0.94780    0.40150    1.000
    H53      H        0.79880    0.00570    0.40250    1.000
    C74      C        0.76600    0.65800    0.65400    1.000
    H54      H        0.86870    0.68080    0.65440    1.000
    C75      C        0.71900    0.60700    0.69920    1.000
    H55      H        0.79610    0.58600    0.72790    1.000
    C76      C        0.47900    0.61100    0.67460    1.000
    H56      H        0.37080    0.60310    0.68400    1.000
    C77      C        0.74100    0.60500    0.61820    1.000
    H57      H        0.82690    0.58900    0.59200    1.000
    C78      C        0.69700    0.55680    0.67080    1.000
    H58      H        0.75370    0.50710    0.68070    1.000
    C79      C        0.48900    0.65360    0.69470    1.000
    H59      H        0.40330    0.67010    0.72080    1.000
    C80      C        0.53300    0.70220    0.64200    1.000
    H60      H        0.47650    0.75190    0.63220    1.000
    Cr6      Cr       0.39030    0.91550    0.28760    1.000
    O8       O        0.20880    0.93940    0.28450    1.000
    N11      N        0.41400    0.41950    0.85210    1.000
    C81      C        0.15900    0.17820    0.10380    1.000
    N12      N        0.07200    0.08090    0.20910    1.000
    C82      C        0.02700    0.16300    0.11300    1.000
    H61      H        0.94970    0.18160    0.08310    1.000
    C83      C        0.20300    0.22660    0.04250    1.000
    C84      C        0.25900    0.26890    0.00040    1.000
    C85      C        0.30400    0.31900    0.94930    1.000
    C86      C        0.39500    0.28400    0.89720    1.000
    H62      H        0.41730    0.22540    0.89590    1.000
    C87      C        0.44800    0.33630    0.84950    1.000
    H63      H        0.50780    0.31460    0.81470    1.000
    C88      C        0.26800    0.39870    0.94910    1.000
    H64      H        0.20360    0.42150    0.98200    1.000
    C89      C        0.32400    0.44780    0.90150    1.000
    H65      H        0.29880    0.50570    0.90250    1.000
    C90      C        0.26600    0.15800    0.15400    1.000
    H66      H        0.36870    0.18080    0.15440    1.000
    C91      C        0.21900    0.10700    0.19920    1.000
    H67      H        0.29610    0.08600    0.22790    1.000
    C92      C        0.97900    0.11100    0.17460    1.000
    H68      H        0.87080    0.10310    0.18400    1.000
    C93      C        0.24100    0.10500    0.11820    1.000
    H69      H        0.32690    0.08900    0.09200    1.000
    C94      C        0.19700    0.05680    0.17080    1.000
    H70      H        0.25370    0.00710    0.18070    1.000
    C95      C        0.98900    0.15360    0.19470    1.000
    H71      H        0.90330    0.17010    0.22080    1.000
    C96      C        0.03300    0.20220    0.14200    1.000
    H72      H        0.97650    0.25190    0.13220    1.000
    Cr7      Cr       0.10970    0.58450    0.78760    1.000
    O9       O        0.29120    0.56060    0.78450    1.000
    N13      N        0.08600    0.08050    0.35210    1.000
    C97      C        0.34100    0.32180    0.60380    1.000
    N14      N        0.42800    0.41910    0.70910    1.000
    C98      C        0.47300    0.33700    0.61300    1.000
    H73      H        0.55030    0.31840    0.58310    1.000
    C99      C        0.29700    0.27340    0.54250    1.000
    C100     C        0.24100    0.23110    0.50040    1.000
    C101     C        0.19600    0.18100    0.44930    1.000
    C102     C        0.10500    0.21600    0.39720    1.000
    H74      H        0.08270    0.27460    0.39590    1.000
    C103     C        0.05200    0.16370    0.34950    1.000
    H75      H        0.99220    0.18540    0.31470    1.000
    C104     C        0.23200    0.10130    0.44910    1.000
    H76      H        0.29640    0.07850    0.48200    1.000
    C105     C        0.17600    0.05220    0.40150    1.000
    H77      H        0.20120    0.99430    0.40250    1.000
    C106     C        0.23400    0.34200    0.65400    1.000
    H78      H        0.13130    0.31920    0.65440    1.000
    C107     C        0.28100    0.39300    0.69920    1.000
    H79      H        0.20390    0.41400    0.72790    1.000
    C108     C        0.52100    0.38900    0.67460    1.000
    H80      H        0.62920    0.39690    0.68400    1.000
    C109     C        0.25900    0.39500    0.61820    1.000
    H81      H        0.17310    0.41100    0.59200    1.000
    C110     C        0.30300    0.44320    0.67080    1.000
    H82      H        0.24630    0.49290    0.68070    1.000
    C111     C        0.51100    0.34640    0.69470    1.000
    H83      H        0.59670    0.32990    0.72080    1.000
    C112     C        0.46700    0.29780    0.64200    1.000
    H84      H        0.52350    0.24810    0.63220    1.000
    Cr8      Cr       0.60970    0.08450    0.28760    1.000
    O10      O        0.79120    0.06060    0.28450    1.000
    N15      N        0.58600    0.58050    0.85210    1.000
    C113     C        0.84100    0.82180    0.10380    1.000
    N16      N        0.92800    0.91910    0.20910    1.000
    C114     C        0.97300    0.83700    0.11300    1.000
    H85      H        0.05030    0.81840    0.08310    1.000
    C115     C        0.79700    0.77340    0.04250    1.000
    C116     C        0.74100    0.73110    0.00040    1.000
    C117     C        0.69600    0.68100    0.94930    1.000
    C118     C        0.60500    0.71600    0.89720    1.000
    H86      H        0.58270    0.77460    0.89590    1.000
    C119     C        0.55200    0.66370    0.84950    1.000
    H87      H        0.49220    0.68540    0.81470    1.000
    C120     C        0.73200    0.60130    0.94910    1.000
    H88      H        0.79640    0.57850    0.98200    1.000
    C121     C        0.67600    0.55220    0.90150    1.000
    H89      H        0.70120    0.49430    0.90250    1.000
    C122     C        0.73400    0.84200    0.15400    1.000
    H90      H        0.63130    0.81920    0.15440    1.000
    C123     C        0.78100    0.89300    0.19920    1.000
    H91      H        0.70390    0.91400    0.22790    1.000
    C124     C        0.02100    0.88900    0.17460    1.000
    H92      H        0.12920    0.89690    0.18400    1.000
    C125     C        0.75900    0.89500    0.11820    1.000
    H93      H        0.67310    0.91100    0.09200    1.000
    C126     C        0.80300    0.94320    0.17080    1.000
    H94      H        0.74630    0.99290    0.18070    1.000
    C127     C        0.01100    0.84640    0.19470    1.000
    H95      H        0.09670    0.82990    0.22080    1.000
    C128     C        0.96700    0.79780    0.14200    1.000
    H96      H        0.02350    0.74810    0.13220    1.000
    Ni3      Ni       0.50000    0.50000    0.78170    1.000
    Ni4      Ni       0.00000    0.00000    0.28170    1.000
    O11      O        0.00000    0.50000    0.75880    1.000
    O12      O        0.50000    0.00000    0.25880    1.000
