# CIF file generated by openbabel 3.1.0, see https://openbabel.org
data_I
_chemical_name_common 'image0'
_cell_length_a 22.773
_cell_length_b 8.549
_cell_length_c 18.85
_cell_angle_alpha 90
_cell_angle_beta 90
_cell_angle_gamma 90
_space_group_name_H-M_alt 'P 1'
_space_group_name_Hall 'P 1'
loop_
    _symmetry_equiv_pos_as_xyz
    x,y,z
loop_
    _atom_site_label
    _atom_site_type_symbol
    _atom_site_fract_x
    _atom_site_fract_y
    _atom_site_fract_z
    _atom_site_occupancy
    N1       N        0.32990    0.43900    0.82730    1.000
    N2       N        0.47670    0.44400    0.83750    1.000
    C1       C        0.29830    0.54000    0.82770    1.000
    C2       C        0.50680    0.54200    0.84830    1.000
    C3       C        0.48510    0.45100    0.50700    1.000
    N3       N        0.17010    0.56100    0.32730    1.000
    N4       N        0.02330    0.55600    0.33750    1.000
    C4       C        0.20170    0.46000    0.32770    1.000
    C5       C        0.99320    0.45800    0.34830    1.000
    C6       C        0.01490    0.54900    0.00700    1.000
    N5       N        0.67010    0.93900    0.17270    1.000
    N6       N        0.52330    0.94400    0.16250    1.000
    C7       C        0.70170    0.04000    0.17230    1.000
    C8       C        0.49320    0.04200    0.15170    1.000
    C9       C        0.51490    0.95100    0.49300    1.000
    N7       N        0.82990    0.06100    0.67270    1.000
    N8       N        0.97670    0.05600    0.66250    1.000
    C10      C        0.79830    0.96000    0.67230    1.000
    C11      C        0.00680    0.95800    0.65170    1.000
    C12      C        0.98510    0.04900    0.99300    1.000
    N9       N        0.67010    0.56100    0.17270    1.000
    N10      N        0.52330    0.55600    0.16250    1.000
    C13      C        0.70170    0.46000    0.17230    1.000
    C14      C        0.49320    0.45800    0.15170    1.000
    C15      C        0.51490    0.54900    0.49300    1.000
    N11      N        0.82990    0.43900    0.67270    1.000
    N12      N        0.97670    0.44400    0.66250    1.000
    C16      C        0.79830    0.54000    0.67230    1.000
    C17      C        0.00680    0.54200    0.65170    1.000
    C18      C        0.98510    0.45100    0.99300    1.000
    N13      N        0.32990    0.06100    0.82730    1.000
    N14      N        0.47670    0.05600    0.83750    1.000
    C19      C        0.29830    0.96000    0.82770    1.000
    C20      C        0.50680    0.95800    0.84830    1.000
    C21      C        0.48510    0.04900    0.50700    1.000
    N15      N        0.17010    0.93900    0.32730    1.000
    N16      N        0.02330    0.94400    0.33750    1.000
    C22      C        0.20170    0.04000    0.32770    1.000
    C23      C        0.99320    0.04200    0.34830    1.000
    C24      C        0.01490    0.95100    0.00700    1.000
    Cd1      Cd       0.40525    0.25000    0.83473    1.000
    Cd2      Cd       0.42620    0.25000    0.53431    1.000
    Cd3      Cd       0.43758    0.25000    0.12848    1.000
    N17      N        0.40960    0.25000    0.70790    1.000
    N18      N        0.40130    0.25000    0.95900    1.000
    C25      C        0.41390    0.25000    0.64790    1.000
    C26      C        0.41050    0.25000    0.01660    1.000
    C27      C        0.35020    0.25000    0.45790    1.000
    C28      C        0.31760    0.25000    0.41620    1.000
    Cd4      Cd       0.09475    0.75000    0.33473    1.000
    Cd5      Cd       0.07380    0.75000    0.03431    1.000
    Cd6      Cd       0.06242    0.75000    0.62848    1.000
    N19      N        0.09040    0.75000    0.20790    1.000
    N20      N        0.09870    0.75000    0.45900    1.000
    C29      C        0.08610    0.75000    0.14790    1.000
    C30      C        0.08950    0.75000    0.51660    1.000
    C31      C        0.14980    0.75000    0.95790    1.000
    C32      C        0.18240    0.75000    0.91620    1.000
    Cd7      Cd       0.59475    0.75000    0.16527    1.000
    Cd8      Cd       0.57380    0.75000    0.46569    1.000
    Cd9      Cd       0.56242    0.75000    0.87152    1.000
    N21      N        0.59040    0.75000    0.29210    1.000
    N22      N        0.59870    0.75000    0.04100    1.000
    C33      C        0.58610    0.75000    0.35210    1.000
    C34      C        0.58950    0.75000    0.98340    1.000
    C35      C        0.64980    0.75000    0.54210    1.000
    C36      C        0.68240    0.75000    0.58380    1.000
    Cd10     Cd       0.90525    0.25000    0.66527    1.000
    Cd11     Cd       0.92620    0.25000    0.96569    1.000
    Cd12     Cd       0.93758    0.25000    0.37152    1.000
    N23      N        0.90960    0.25000    0.79210    1.000
    N24      N        0.90130    0.25000    0.54100    1.000
    C37      C        0.91390    0.25000    0.85210    1.000
    C38      C        0.91050    0.25000    0.48340    1.000
    C39      C        0.85020    0.25000    0.04210    1.000
    C40      C        0.81760    0.25000    0.08380    1.000
    Cd13     Cd       0.24301    0.75000    0.82375    1.000
    C41      C        0.17740    0.75000    0.73900    1.000
    C42      C        0.14050    0.75000    0.69950    1.000
    Cd14     Cd       0.25699    0.25000    0.32375    1.000
    C43      C        0.32260    0.25000    0.23900    1.000
    C44      C        0.35950    0.25000    0.19950    1.000
    Cd15     Cd       0.75699    0.25000    0.17625    1.000
    C45      C        0.82260    0.25000    0.26100    1.000
    C46      C        0.85950    0.25000    0.30050    1.000
    Cd16     Cd       0.74301    0.75000    0.67625    1.000
    C47      C        0.67740    0.75000    0.76100    1.000
    C48      C        0.64050    0.75000    0.80050    1.000
