# CIF file generated by openbabel 3.1.0, see https://openbabel.org
data_I
_chemical_name_common 'image0'
_cell_length_a 9.47
_cell_length_b 12.351
_cell_length_c 13.575
_cell_angle_alpha 90
_cell_angle_beta 94.327
_cell_angle_gamma 90
_space_group_name_H-M_alt 'P 1'
_space_group_name_Hall 'P 1'
loop_
    _symmetry_equiv_pos_as_xyz
    x,y,z
loop_
    _atom_site_label
    _atom_site_type_symbol
    _atom_site_fract_x
    _atom_site_fract_y
    _atom_site_fract_z
    _atom_site_occupancy
    Zn1      Zn       0.89147    0.67955    0.05911    1.000
    Zn2      Zn       0.62372    0.81579    0.17921    1.000
    O1       O        0.95140    0.81180    0.13360    1.000
    O2       O        0.80700    0.81390    0.25670    1.000
    O3       O        0.86060    0.56250    0.14960    1.000
    O4       O        0.07190    0.59420    0.22540    1.000
    O5       O        0.70690    0.68390    0.98600    1.000
    O6       O        0.56330    0.68080    0.11130    1.000
    O7       O        0.66080    0.92540    0.08350    1.000
    O8       O        0.45020    0.88600    0.00570    1.000
    O9       O        0.46230    0.82330    0.25830    1.000
    O10      O        0.52410    0.97920    0.33230    1.000
    O11      O        0.05290    0.68400    0.98090    1.000
    O12      O        0.98550    0.55640    0.87140    1.000
    C1       C        0.92350    0.83270    0.22080    1.000
    C2       C        0.03660    0.88430    0.28780    1.000
    C3       C        0.17710    0.87230    0.26830    1.000
    H1       H        0.20110    0.83070    0.21320    1.000
    C4       C        0.28360    0.92130    0.32970    1.000
    C5       C        0.24610    0.98360    0.40800    1.000
    H2       H        0.31770    0.01860    0.44920    1.000
    C6       C        0.10590    0.99590    0.42710    1.000
    C7       C        0.99970    0.94600    0.36660    1.000
    H3       H        0.90310    0.95440    0.37950    1.000
    C8       C        0.95300    0.55240    0.22130    1.000
    C9       C        0.91200    0.48370    0.30480    1.000
    C10      C        0.76840    0.46370    0.31790    1.000
    H4       H        0.69680    0.48990    0.27100    1.000
    C11      C        0.01300    0.44150    0.37230    1.000
    H5       H        0.11020    0.45290    0.36280    1.000
    C12      C        0.59040    0.66370    0.02310    1.000
    C13      C        0.47700    0.61700    0.95350    1.000
    C14      C        0.33410    0.63400    0.96840    1.000
    H6       H        0.30790    0.67200    0.02510    1.000
    C15      C        0.23170    0.59490    0.90000    1.000
    C16      C        0.56500    0.93420    0.01060    1.000
    C17      C        0.43540    0.91000    0.30650    1.000
    C18      C        0.07610    0.61090    0.91690    1.000
    Zn3      Zn       0.39147    0.32045    0.55911    1.000
    Zn4      Zn       0.12372    0.18421    0.67921    1.000
    O13      O        0.45140    0.18820    0.63360    1.000
    O14      O        0.30700    0.18610    0.75670    1.000
    O15      O        0.36060    0.43750    0.64960    1.000
    O16      O        0.57190    0.40580    0.72540    1.000
    O17      O        0.20690    0.31610    0.48600    1.000
    O18      O        0.06330    0.31920    0.61130    1.000
    O19      O        0.16080    0.07460    0.58350    1.000
    O20      O        0.95020    0.11400    0.50570    1.000
    O21      O        0.96230    0.17670    0.75830    1.000
    O22      O        0.02410    0.02080    0.83230    1.000
    O23      O        0.55290    0.31600    0.48090    1.000
    O24      O        0.48550    0.44360    0.37140    1.000
    C19      C        0.42350    0.16730    0.72080    1.000
    C20      C        0.53660    0.11570    0.78780    1.000
    C21      C        0.67710    0.12770    0.76830    1.000
    H7       H        0.70110    0.16930    0.71320    1.000
    C22      C        0.78360    0.07870    0.82970    1.000
    C23      C        0.74610    0.01640    0.90800    1.000
    H8       H        0.81770    0.98140    0.94920    1.000
    C24      C        0.60590    0.00410    0.92710    1.000
    C25      C        0.49970    0.05400    0.86660    1.000
    H9       H        0.40310    0.04560    0.87950    1.000
    C26      C        0.45300    0.44760    0.72130    1.000
    C27      C        0.41200    0.51630    0.80480    1.000
    C28      C        0.26840    0.53630    0.81790    1.000
    H10      H        0.19680    0.51010    0.77100    1.000
    C29      C        0.51300    0.55850    0.87230    1.000
    H11      H        0.61020    0.54710    0.86280    1.000
    C30      C        0.09040    0.33630    0.52310    1.000
    C31      C        0.97700    0.38300    0.45350    1.000
    C32      C        0.83410    0.36600    0.46840    1.000
    H12      H        0.80790    0.32800    0.52510    1.000
    C33      C        0.73170    0.40510    0.40000    1.000
    C34      C        0.06500    0.06580    0.51060    1.000
    C35      C        0.93540    0.09000    0.80650    1.000
    C36      C        0.57610    0.38910    0.41690    1.000
