# CIF file generated by openbabel 3.1.0, see https://openbabel.org
data_I
_chemical_name_common 'EZABEN_clean'
_cell_length_a 8.4413
_cell_length_b 8.4413
_cell_length_c 16.688
_cell_angle_alpha 90
_cell_angle_beta 90
_cell_angle_gamma 90.7823
_space_group_name_H-M_alt 'P 1'
_space_group_name_Hall 'P 1'
loop_
    _symmetry_equiv_pos_as_xyz
    x,y,z
loop_
    _atom_site_label
    _atom_site_type_symbol
    _atom_site_fract_x
    _atom_site_fract_y
    _atom_site_fract_z
    _atom_site_occupancy
    Cd1      Cd       0.93855    0.06145    0.32061    1.000
    Cd2      Cd       0.30719    0.69281    0.17980    1.000
    Cd3      Cd       0.62063    0.37937    0.28458    1.000
    Cd4      Cd       0.06145    0.93855    0.82061    1.000
    Cd5      Cd       0.69281    0.30719    0.67980    1.000
    Cd6      Cd       0.37937    0.62063    0.78458    1.000
    H1       H        0.66980    0.77600    0.25810    1.000
    H2       H        0.36280    0.09380    0.19990    1.000
    H3       H        0.33020    0.22400    0.75810    1.000
    H4       H        0.63720    0.90620    0.69990    1.000
    H5       H        0.77600    0.66980    0.75810    1.000
    H6       H        0.09380    0.36280    0.69990    1.000
    H7       H        0.22400    0.33020    0.25810    1.000
    H8       H        0.90620    0.63720    0.19990    1.000
    H9       H        0.57580    0.42420    0.48910    1.000
    H10      H        0.89490    0.10510    0.52910    1.000
    H11      H        0.42420    0.57580    0.98910    1.000
    H12      H        0.10510    0.89490    0.02910    1.000
    C1       C        0.62150    0.87310    0.25000    1.000
    C2       C        0.45460    0.04600    0.21810    1.000
    C3       C        0.37850    0.12690    0.75000    1.000
    C4       C        0.54540    0.95400    0.71810    1.000
    C5       C        0.87310    0.62150    0.75000    1.000
    C6       C        0.04600    0.45460    0.71810    1.000
    C7       C        0.12690    0.37850    0.25000    1.000
    C8       C        0.95400    0.54540    0.21810    1.000
    C9       C        0.65260    0.34740    0.48250    1.000
    C10      C        0.82560    0.17440    0.50440    1.000
    C11      C        0.34740    0.65260    0.98250    1.000
    C12      C        0.17440    0.82560    0.00440    1.000
    N1       N        0.68820    0.01140    0.26920    1.000
    N2       N        0.57860    0.12600    0.24730    1.000
    N3       N        0.47640    0.88840    0.21770    1.000
    N4       N        0.31180    0.98860    0.76920    1.000
    N5       N        0.42140    0.87400    0.74730    1.000
    N6       N        0.52360    0.11160    0.71770    1.000
    N7       N        0.01140    0.68820    0.76920    1.000
    N8       N        0.12600    0.57860    0.74730    1.000
    N9       N        0.88840    0.47640    0.71770    1.000
    N10      N        0.98860    0.31180    0.26920    1.000
    N11      N        0.87400    0.42140    0.24730    1.000
    N12      N        0.11160    0.52360    0.21770    1.000
    N13      N        0.70180    0.29820    0.41330    1.000
    N14      N        0.81280    0.18720    0.42840    1.000
    N15      N        0.72800    0.27200    0.54550    1.000
    N16      N        0.29820    0.70180    0.91330    1.000
    N17      N        0.18720    0.81280    0.92840    1.000
    N18      N        0.27200    0.72800    0.04550    1.000
    Cl1      Cl       0.07610    0.92390    0.20060    1.000
    Cl2      Cl       0.43120    0.56880    0.34370    1.000
    Cl3      Cl       0.52000    0.48000    0.14280    1.000
    Cl4      Cl       0.92390    0.07610    0.70060    1.000
    Cl5      Cl       0.56880    0.43120    0.84370    1.000
    Cl6      Cl       0.48000    0.52000    0.64280    1.000
