# CIF file generated by openbabel 3.1.0, see https://openbabel.org
data_I
_chemical_name_common 'image0'
_cell_length_a 28.2573
_cell_length_b 14.6878
_cell_length_c 13.639
_cell_angle_alpha 90
_cell_angle_beta 99.327
_cell_angle_gamma 90
_space_group_name_H-M_alt 'P 1'
_space_group_name_Hall 'P 1'
loop_
    _symmetry_equiv_pos_as_xyz
    x,y,z
loop_
    _atom_site_label
    _atom_site_type_symbol
    _atom_site_fract_x
    _atom_site_fract_y
    _atom_site_fract_z
    _atom_site_occupancy
    C1       C        0.40490    0.25890    0.97470    1.000
    C2       C        0.44930    0.28630    0.93670    1.000
    C3       C        0.47850    0.21850    0.90330    1.000
    H1       H        0.46920    0.15780    0.90300    1.000
    C4       C        0.52000    0.24120    0.87160    1.000
    H2       H        0.53870    0.19610    0.84910    1.000
    C5       C        0.53510    0.33380    0.87270    1.000
    C6       C        0.50500    0.40220    0.90180    1.000
    H3       H        0.51300    0.46340    0.89870    1.000
    C7       C        0.46230    0.37510    0.93570    1.000
    H4       H        0.44290    0.41910    0.95770    1.000
    C8       C        0.58260    0.35070    0.84550    1.000
    C9       C        0.75090    0.59680    0.90820    1.000
    C10      C        0.71990    0.52760    0.85060    1.000
    C11      C        0.73780    0.47200    0.78450    1.000
    H5       H        0.76950    0.47830    0.77520    1.000
    C12      C        0.70900    0.40680    0.73160    1.000
    C13      C        0.66060    0.39650    0.74560    1.000
    H6       H        0.64080    0.35420    0.70860    1.000
    C14      C        0.64320    0.45130    0.81660    1.000
    C15      C        0.67190    0.51800    0.86480    1.000
    H7       H        0.65950    0.55740    0.90760    1.000
    C16      C        0.72750    0.34620    0.65970    1.000
    N1       N        0.59690    0.43860    0.83930    1.000
    O1       O        0.38740    0.18070    0.95390    1.000
    O2       O        0.38590    0.31370    0.02660    1.000
    O3       O        0.79551    0.58460    0.92450    1.000
    O4       O        0.73260    0.66470    0.94360    1.000
    O5       O        0.69910    0.28630    0.61730    1.000
    O6       O        0.76970    0.35670    0.64600    1.000
    O7       O        0.35460    0.26500    0.20800    1.000
    C17      C        0.33180    0.29300    0.27300    1.000
    N2       N        0.36060    0.34500    0.35200    1.000
    C18      C        0.37880    0.39300    0.44300    1.000
    H8       H        0.40240    0.43670    0.43030    1.000
    H9       H        0.39320    0.35050    0.49220    1.000
    H10      H        0.35300    0.42410    0.46650    1.000
    H11      H        0.59900    0.31600    0.90600    1.000
    Eu1      Eu       0.31788    0.21057    0.03755    1.000
    C19      C        0.32340    0.39100    0.39500    1.000
    H12      H        0.33800    0.42940    0.44860    1.000
    H13      H        0.30340    0.34680    0.42000    1.000
    H14      H        0.30430    0.42760    0.34530    1.000
    O8       O        0.35030    0.25500    0.20280    1.000
    C20      C        0.90490    0.75890    0.97470    1.000
    C21      C        0.94930    0.78630    0.93670    1.000
    C22      C        0.97850    0.71850    0.90330    1.000
    H15      H        0.96920    0.65780    0.90300    1.000
    C23      C        0.02000    0.74120    0.87160    1.000
    H16      H        0.03870    0.69610    0.84910    1.000
    C24      C        0.03510    0.83380    0.87270    1.000
    C25      C        0.00500    0.90220    0.90180    1.000
    H17      H        0.01300    0.96340    0.89870    1.000
    C26      C        0.96230    0.87510    0.93570    1.000
    H18      H        0.94290    0.91910    0.95770    1.000
    C27      C        0.08260    0.85070    0.84550    1.000
    C28      C        0.25090    0.09680    0.90820    1.000
    C29      C        0.21990    0.02760    0.85060    1.000
    C30      C        0.23780    0.97200    0.78450    1.000
    H19      H        0.26950    0.97830    0.77520    1.000
    C31      C        0.20900    0.90680    0.73160    1.000
    C32      C        0.16060    0.89650    0.74560    1.000
    H20      H        0.14080    0.85420    0.70860    1.000
    C33      C        0.14320    0.95130    0.81660    1.000
    C34      C        0.17190    0.01800    0.86480    1.000
    H21      H        0.15950    0.05740    0.90760    1.000
    C35      C        0.22750    0.84620    0.65970    1.000
    N3       N        0.09690    0.93860    0.83930    1.000
    O9       O        0.88740    0.68070    0.95390    1.000
    O10      O        0.88590    0.81370    0.02660    1.000
    O11      O        0.29551    0.08460    0.92450    1.000
    O12      O        0.23260    0.16470    0.94360    1.000
    O13      O        0.19910    0.78630    0.61730    1.000
    O14      O        0.26970    0.85670    0.64600    1.000
    O15      O        0.85460    0.76500    0.20800    1.000
    C36      C        0.83180    0.79300    0.27300    1.000
    N4       N        0.86060    0.84500    0.35200    1.000
    C37      C        0.87880    0.89300    0.44300    1.000
    H22      H        0.90240    0.93670    0.43030    1.000
    H23      H        0.89320    0.85050    0.49220    1.000
    H24      H        0.85300    0.92410    0.46650    1.000
    H25      H        0.09900    0.81600    0.90600    1.000
    Eu2      Eu       0.81788    0.71057    0.03755    1.000
    C38      C        0.82340    0.89100    0.39500    1.000
    H26      H        0.83800    0.92940    0.44860    1.000
    H27      H        0.80340    0.84680    0.42000    1.000
    H28      H        0.80430    0.92760    0.34530    1.000
    O16      O        0.85030    0.75500    0.20280    1.000
    C39      C        0.59510    0.25890    0.52530    1.000
    C40      C        0.55070    0.28630    0.56330    1.000
    C41      C        0.52150    0.21850    0.59670    1.000
    H29      H        0.53080    0.15780    0.59700    1.000
    C42      C        0.48000    0.24120    0.62840    1.000
    H30      H        0.46130    0.19610    0.65090    1.000
    C43      C        0.46490    0.33380    0.62730    1.000
    C44      C        0.49500    0.40220    0.59820    1.000
    H31      H        0.48700    0.46340    0.60130    1.000
    C45      C        0.53770    0.37510    0.56430    1.000
    H32      H        0.55710    0.41910    0.54230    1.000
    C46      C        0.41740    0.35070    0.65450    1.000
    C47      C        0.24910    0.59680    0.59180    1.000
    C48      C        0.28010    0.52760    0.64940    1.000
    C49      C        0.26220    0.47200    0.71550    1.000
    H33      H        0.23050    0.47830    0.72480    1.000
    C50      C        0.29100    0.40680    0.76840    1.000
    C51      C        0.33940    0.39650    0.75440    1.000
    H34      H        0.35920    0.35420    0.79140    1.000
    C52      C        0.35680    0.45130    0.68340    1.000
    C53      C        0.32810    0.51800    0.63520    1.000
    H35      H        0.34050    0.55740    0.59240    1.000
    C54      C        0.27250    0.34620    0.84030    1.000
    N5       N        0.40310    0.43860    0.66070    1.000
    O17      O        0.61260    0.18070    0.54610    1.000
    O18      O        0.61410    0.31370    0.47340    1.000
    O19      O        0.20449    0.58460    0.57550    1.000
    O20      O        0.26740    0.66470    0.55640    1.000
    O21      O        0.30090    0.28630    0.88270    1.000
    O22      O        0.23030    0.35670    0.85400    1.000
    O23      O        0.64540    0.26500    0.29200    1.000
    C55      C        0.66820    0.29300    0.22700    1.000
    N6       N        0.63940    0.34500    0.14800    1.000
    C56      C        0.62120    0.39300    0.05700    1.000
    H36      H        0.59760    0.43670    0.06970    1.000
    H37      H        0.60680    0.35050    0.00780    1.000
    H38      H        0.64700    0.42410    0.03350    1.000
    H39      H        0.40100    0.31600    0.59400    1.000
    Eu3      Eu       0.68212    0.21057    0.46245    1.000
    C57      C        0.67660    0.39100    0.10500    1.000
    H40      H        0.66200    0.42940    0.05140    1.000
    H41      H        0.69660    0.34680    0.08000    1.000
    H42      H        0.69570    0.42760    0.15470    1.000
    O24      O        0.64970    0.25500    0.29720    1.000
    C58      C        0.09510    0.75890    0.52530    1.000
    C59      C        0.05070    0.78630    0.56330    1.000
    C60      C        0.02150    0.71850    0.59670    1.000
    H43      H        0.03080    0.65780    0.59700    1.000
    C61      C        0.98000    0.74120    0.62840    1.000
    H44      H        0.96130    0.69610    0.65090    1.000
    C62      C        0.96490    0.83380    0.62730    1.000
    C63      C        0.99500    0.90220    0.59820    1.000
    H45      H        0.98700    0.96340    0.60130    1.000
    C64      C        0.03770    0.87510    0.56430    1.000
    H46      H        0.05710    0.91910    0.54230    1.000
    C65      C        0.91740    0.85070    0.65450    1.000
    C66      C        0.74910    0.09680    0.59180    1.000
    C67      C        0.78010    0.02760    0.64940    1.000
    C68      C        0.76220    0.97200    0.71550    1.000
    H47      H        0.73050    0.97830    0.72480    1.000
    C69      C        0.79100    0.90680    0.76840    1.000
    C70      C        0.83940    0.89650    0.75440    1.000
    H48      H        0.85920    0.85420    0.79140    1.000
    C71      C        0.85680    0.95130    0.68340    1.000
    C72      C        0.82810    0.01800    0.63520    1.000
    H49      H        0.84050    0.05740    0.59240    1.000
    C73      C        0.77250    0.84620    0.84030    1.000
    N7       N        0.90310    0.93860    0.66070    1.000
    O25      O        0.11260    0.68070    0.54610    1.000
    O26      O        0.11410    0.81370    0.47340    1.000
    O27      O        0.70449    0.08460    0.57550    1.000
    O28      O        0.76740    0.16470    0.55640    1.000
    O29      O        0.80090    0.78630    0.88270    1.000
    O30      O        0.73030    0.85670    0.85400    1.000
    O31      O        0.14540    0.76500    0.29200    1.000
    C74      C        0.16820    0.79300    0.22700    1.000
    N8       N        0.13940    0.84500    0.14800    1.000
    C75      C        0.12120    0.89300    0.05700    1.000
    H50      H        0.09760    0.93670    0.06970    1.000
    H51      H        0.10680    0.85050    0.00780    1.000
    H52      H        0.14700    0.92410    0.03350    1.000
    H53      H        0.90100    0.81600    0.59400    1.000
    Eu4      Eu       0.18212    0.71057    0.46245    1.000
    C76      C        0.17660    0.89100    0.10500    1.000
    H54      H        0.16200    0.92940    0.05140    1.000
    H55      H        0.19660    0.84680    0.08000    1.000
    H56      H        0.19570    0.92760    0.15470    1.000
    O32      O        0.14970    0.75500    0.29720    1.000
    C77      C        0.59510    0.74110    0.02530    1.000
    C78      C        0.55070    0.71370    0.06330    1.000
    C79      C        0.52150    0.78150    0.09670    1.000
    H57      H        0.53080    0.84220    0.09700    1.000
    C80      C        0.48000    0.75880    0.12840    1.000
    H58      H        0.46130    0.80390    0.15090    1.000
    C81      C        0.46490    0.66620    0.12730    1.000
    C82      C        0.49500    0.59780    0.09820    1.000
    H59      H        0.48700    0.53660    0.10130    1.000
    C83      C        0.53770    0.62490    0.06430    1.000
    H60      H        0.55710    0.58090    0.04230    1.000
    C84      C        0.41740    0.64930    0.15450    1.000
    C85      C        0.24910    0.40320    0.09180    1.000
    C86      C        0.28010    0.47240    0.14940    1.000
    C87      C        0.26220    0.52800    0.21550    1.000
    H61      H        0.23050    0.52170    0.22480    1.000
    C88      C        0.29100    0.59320    0.26840    1.000
    C89      C        0.33940    0.60350    0.25440    1.000
    H62      H        0.35920    0.64580    0.29140    1.000
    C90      C        0.35680    0.54870    0.18340    1.000
    C91      C        0.32810    0.48200    0.13520    1.000
    H63      H        0.34050    0.44260    0.09240    1.000
    C92      C        0.27250    0.65380    0.34030    1.000
    N9       N        0.40310    0.56140    0.16070    1.000
    O33      O        0.61260    0.81930    0.04610    1.000
    O34      O        0.61410    0.68630    0.97340    1.000
    O35      O        0.20449    0.41540    0.07550    1.000
    O36      O        0.26740    0.33530    0.05640    1.000
    O37      O        0.30090    0.71370    0.38270    1.000
    O38      O        0.23030    0.64330    0.35400    1.000
    O39      O        0.64540    0.73500    0.79200    1.000
    C93      C        0.66820    0.70700    0.72700    1.000
    N10      N        0.63940    0.65500    0.64800    1.000
    C94      C        0.62120    0.60700    0.55700    1.000
    H64      H        0.59760    0.56330    0.56970    1.000
    H65      H        0.60680    0.64950    0.50780    1.000
    H66      H        0.64700    0.57590    0.53350    1.000
    H67      H        0.40100    0.68400    0.09400    1.000
    Eu5      Eu       0.68212    0.78943    0.96245    1.000
    C95      C        0.67660    0.60900    0.60500    1.000
    H68      H        0.66200    0.57060    0.55140    1.000
    H69      H        0.69660    0.65320    0.58000    1.000
    H70      H        0.69570    0.57240    0.65470    1.000
    O40      O        0.64970    0.74500    0.79720    1.000
    C96      C        0.09510    0.24110    0.02530    1.000
    C97      C        0.05070    0.21370    0.06330    1.000
    C98      C        0.02150    0.28150    0.09670    1.000
    H71      H        0.03080    0.34220    0.09700    1.000
    C99      C        0.98000    0.25880    0.12840    1.000
    H72      H        0.96130    0.30390    0.15090    1.000
    C100     C        0.96490    0.16620    0.12730    1.000
    C101     C        0.99500    0.09780    0.09820    1.000
    H73      H        0.98700    0.03660    0.10130    1.000
    C102     C        0.03770    0.12490    0.06430    1.000
    H74      H        0.05710    0.08090    0.04230    1.000
    C103     C        0.91740    0.14930    0.15450    1.000
    C104     C        0.74910    0.90320    0.09180    1.000
    C105     C        0.78010    0.97240    0.14940    1.000
    C106     C        0.76220    0.02800    0.21550    1.000
    H75      H        0.73050    0.02170    0.22480    1.000
    C107     C        0.79100    0.09320    0.26840    1.000
    C108     C        0.83940    0.10350    0.25440    1.000
    H76      H        0.85920    0.14580    0.29140    1.000
    C109     C        0.85680    0.04870    0.18340    1.000
    C110     C        0.82810    0.98200    0.13520    1.000
    H77      H        0.84050    0.94260    0.09240    1.000
    C111     C        0.77250    0.15380    0.34030    1.000
    N11      N        0.90310    0.06140    0.16070    1.000
    O41      O        0.11260    0.31930    0.04610    1.000
    O42      O        0.11410    0.18630    0.97340    1.000
    O43      O        0.70449    0.91540    0.07550    1.000
    O44      O        0.76740    0.83530    0.05640    1.000
    O45      O        0.80090    0.21370    0.38270    1.000
    O46      O        0.73030    0.14330    0.35400    1.000
    O47      O        0.14540    0.23500    0.79200    1.000
    C112     C        0.16820    0.20700    0.72700    1.000
    N12      N        0.13940    0.15500    0.64800    1.000
    C113     C        0.12120    0.10700    0.55700    1.000
    H78      H        0.09760    0.06330    0.56970    1.000
    H79      H        0.10680    0.14950    0.50780    1.000
    H80      H        0.14700    0.07590    0.53350    1.000
    H81      H        0.90100    0.18400    0.09400    1.000
    Eu6      Eu       0.18212    0.28943    0.96245    1.000
    C114     C        0.17660    0.10900    0.60500    1.000
    H82      H        0.16200    0.07060    0.55140    1.000
    H83      H        0.19660    0.15320    0.58000    1.000
    H84      H        0.19570    0.07240    0.65470    1.000
    O48      O        0.14970    0.24500    0.79720    1.000
    C115     C        0.40490    0.74110    0.47470    1.000
    C116     C        0.44930    0.71370    0.43670    1.000
    C117     C        0.47850    0.78150    0.40330    1.000
    H85      H        0.46920    0.84220    0.40300    1.000
    C118     C        0.52000    0.75880    0.37160    1.000
    H86      H        0.53870    0.80390    0.34910    1.000
    C119     C        0.53510    0.66620    0.37270    1.000
    C120     C        0.50500    0.59780    0.40180    1.000
    H87      H        0.51300    0.53660    0.39870    1.000
    C121     C        0.46230    0.62490    0.43570    1.000
    H88      H        0.44290    0.58090    0.45770    1.000
    C122     C        0.58260    0.64930    0.34550    1.000
    C123     C        0.75090    0.40320    0.40820    1.000
    C124     C        0.71990    0.47240    0.35060    1.000
    C125     C        0.73780    0.52800    0.28450    1.000
    H89      H        0.76950    0.52170    0.27520    1.000
    C126     C        0.70900    0.59320    0.23160    1.000
    C127     C        0.66060    0.60350    0.24560    1.000
    H90      H        0.64080    0.64580    0.20860    1.000
    C128     C        0.64320    0.54870    0.31660    1.000
    C129     C        0.67190    0.48200    0.36480    1.000
    H91      H        0.65950    0.44260    0.40760    1.000
    C130     C        0.72750    0.65380    0.15970    1.000
    N13      N        0.59690    0.56140    0.33930    1.000
    O49      O        0.38740    0.81930    0.45390    1.000
    O50      O        0.38590    0.68630    0.52660    1.000
    O51      O        0.79551    0.41540    0.42450    1.000
    O52      O        0.73260    0.33530    0.44360    1.000
    O53      O        0.69910    0.71370    0.11730    1.000
    O54      O        0.76970    0.64330    0.14600    1.000
    O55      O        0.35460    0.73500    0.70800    1.000
    C131     C        0.33180    0.70700    0.77300    1.000
    N14      N        0.36060    0.65500    0.85200    1.000
    C132     C        0.37880    0.60700    0.94300    1.000
    H92      H        0.40240    0.56330    0.93030    1.000
    H93      H        0.39320    0.64950    0.99220    1.000
    H94      H        0.35300    0.57590    0.96650    1.000
    H95      H        0.59900    0.68400    0.40600    1.000
    Eu7      Eu       0.31788    0.78943    0.53755    1.000
    C133     C        0.32340    0.60900    0.89500    1.000
    H96      H        0.33800    0.57060    0.94860    1.000
    H97      H        0.30340    0.65320    0.92000    1.000
    H98      H        0.30430    0.57240    0.84530    1.000
    O56      O        0.35030    0.74500    0.70280    1.000
    C134     C        0.90490    0.24110    0.47470    1.000
    C135     C        0.94930    0.21370    0.43670    1.000
    C136     C        0.97850    0.28150    0.40330    1.000
    H99      H        0.96920    0.34220    0.40300    1.000
    C137     C        0.02000    0.25880    0.37160    1.000
    H100     H        0.03870    0.30390    0.34910    1.000
    C138     C        0.03510    0.16620    0.37270    1.000
    C139     C        0.00500    0.09780    0.40180    1.000
    H101     H        0.01300    0.03660    0.39870    1.000
    C140     C        0.96230    0.12490    0.43570    1.000
    H102     H        0.94290    0.08090    0.45770    1.000
    C141     C        0.08260    0.14930    0.34550    1.000
    C142     C        0.25090    0.90320    0.40820    1.000
    C143     C        0.21990    0.97240    0.35060    1.000
    C144     C        0.23780    0.02800    0.28450    1.000
    H103     H        0.26950    0.02170    0.27520    1.000
    C145     C        0.20900    0.09320    0.23160    1.000
    C146     C        0.16060    0.10350    0.24560    1.000
    H104     H        0.14080    0.14580    0.20860    1.000
    C147     C        0.14320    0.04870    0.31660    1.000
    C148     C        0.17190    0.98200    0.36480    1.000
    H105     H        0.15950    0.94260    0.40760    1.000
    C149     C        0.22750    0.15380    0.15970    1.000
    N15      N        0.09690    0.06140    0.33930    1.000
    O57      O        0.88740    0.31930    0.45390    1.000
    O58      O        0.88590    0.18630    0.52660    1.000
    O59      O        0.29551    0.91540    0.42450    1.000
    O60      O        0.23260    0.83530    0.44360    1.000
    O61      O        0.19910    0.21370    0.11730    1.000
    O62      O        0.26970    0.14330    0.14600    1.000
    O63      O        0.85460    0.23500    0.70800    1.000
    C150     C        0.83180    0.20700    0.77300    1.000
    N16      N        0.86060    0.15500    0.85200    1.000
    C151     C        0.87880    0.10700    0.94300    1.000
    H106     H        0.90240    0.06330    0.93030    1.000
    H107     H        0.89320    0.14950    0.99220    1.000
    H108     H        0.85300    0.07590    0.96650    1.000
    H109     H        0.09900    0.18400    0.40600    1.000
    Eu8      Eu       0.81788    0.28943    0.53755    1.000
    C152     C        0.82340    0.10900    0.89500    1.000
    H110     H        0.83800    0.07060    0.94860    1.000
    H111     H        0.80340    0.15320    0.92000    1.000
    H112     H        0.80430    0.07240    0.84530    1.000
    O64      O        0.85030    0.24500    0.70280    1.000
