# CIF file generated by openbabel 3.1.0, see https://openbabel.org
data_I
_chemical_name_common 'KIXKOS_ion_b'
_cell_length_a 29.8537
_cell_length_b 29.8537
_cell_length_c 29.8537
_cell_angle_alpha 32.9365
_cell_angle_beta 32.9365
_cell_angle_gamma 32.9365
_space_group_name_H-M_alt 'P 1'
_space_group_name_Hall 'P 1'
loop_
    _symmetry_equiv_pos_as_xyz
    x,y,z
loop_
    _atom_site_label
    _atom_site_type_symbol
    _atom_site_fract_x
    _atom_site_fract_y
    _atom_site_fract_z
    _atom_site_occupancy
    Co1      Co       0.34899    0.27999    0.54811    1.000
    Co2      Co       0.25788    0.24804    0.56383    1.000
    O3       O        0.29538    0.33638    0.48698    1.000
    O5       O        0.16764    0.25764    0.67774    1.000
    O6       O        0.24225    0.25235    0.68285    1.000
    O7       O        0.93084    0.25394    0.07544    1.000
    O8       O        0.07573    0.21553    0.99713    1.000
    C9       C        0.17671    0.25201    0.71651    1.000
    C10      C        0.10043    0.24403    0.81133    1.000
    C11      C        0.02042    0.23712    0.95042    1.000
    C12      C        0.09351    0.24551    0.86201    1.000
    H13      H        0.13760    0.25210    0.83710    1.000
    C14      C        0.01056    0.23566    0.00896    1.000
    C15      C        0.03482    0.23312    0.85002    1.000
    H16      H        0.03900    0.23220    0.81610    1.000
    C17      C        0.96390    0.22320    0.93800    1.000
    H18      H        0.92120    0.21390    0.96420    1.000
    C19      C        0.95606    0.22736    0.98626    1.000
    H20      H        0.90620    0.22370    0.04470    1.000
    O21      O        0.83918    0.46048    0.55988    1.000
    O22      O        0.87776    0.39446    0.64996    1.000
    O23      O        0.23394    0.42234    0.37834    1.000
    O24      O        0.17894    0.32084    0.52014    1.000
    C25      C        0.89265    0.43185    0.57215    1.000
    C26      C        0.97685    0.44525    0.49045    1.000
    C27      C        0.11447    0.42807    0.42647    1.000
    C28      C        0.03920    0.41040    0.50180    1.000
    H29      H        0.03060    0.37430    0.56120    1.000
    C30      C        0.18082    0.38782    0.44252    1.000
    C31      C        0.98920    0.49880    0.40250    1.000
    H32      H        0.94730    0.52250    0.39430    1.000
    C33      C        0.06502    0.51702    0.32622    1.000
    H34      H        0.07410    0.55270    0.26670    1.000
    C35      C        0.12673    0.48213    0.33873    1.000
    H36      H        0.17670    0.49520    0.28760    1.000
    Co37     Co       0.54811    0.34899    0.27999    1.000
    Co38     Co       0.56383    0.25788    0.24804    1.000
    O39      O        0.48698    0.29538    0.33638    1.000
    O41      O        0.67774    0.16764    0.25764    1.000
    O42      O        0.68285    0.24225    0.25235    1.000
    O43      O        0.07544    0.93084    0.25394    1.000
    O44      O        0.99713    0.07573    0.21553    1.000
    C45      C        0.71651    0.17671    0.25201    1.000
    C46      C        0.81133    0.10043    0.24403    1.000
    C47      C        0.95042    0.02042    0.23712    1.000
    C48      C        0.86201    0.09351    0.24551    1.000
    H49      H        0.83710    0.13760    0.25210    1.000
    C50      C        0.00896    0.01056    0.23566    1.000
    C51      C        0.85002    0.03482    0.23312    1.000
    H52      H        0.81610    0.03900    0.23220    1.000
    C53      C        0.93800    0.96390    0.22320    1.000
    H54      H        0.96420    0.92120    0.21390    1.000
    C55      C        0.98626    0.95606    0.22736    1.000
    H56      H        0.04470    0.90620    0.22370    1.000
    O57      O        0.55988    0.83918    0.46048    1.000
    O58      O        0.64996    0.87776    0.39446    1.000
    O59      O        0.37834    0.23394    0.42234    1.000
    O60      O        0.52014    0.17894    0.32084    1.000
    C61      C        0.57215    0.89265    0.43185    1.000
    C62      C        0.49045    0.97685    0.44525    1.000
    C63      C        0.42647    0.11447    0.42807    1.000
    C64      C        0.50180    0.03920    0.41040    1.000
    H65      H        0.56120    0.03060    0.37430    1.000
    C66      C        0.44252    0.18082    0.38782    1.000
    C67      C        0.40250    0.98920    0.49880    1.000
    H68      H        0.39430    0.94730    0.52250    1.000
    C69      C        0.32622    0.06502    0.51702    1.000
    H70      H        0.26670    0.07410    0.55270    1.000
    C71      C        0.33873    0.12673    0.48213    1.000
    H72      H        0.28760    0.17670    0.49520    1.000
    Co73     Co       0.27999    0.54811    0.34899    1.000
    Co74     Co       0.24804    0.56383    0.25788    1.000
    O75      O        0.33638    0.48698    0.29538    1.000
    O77      O        0.25764    0.67774    0.16764    1.000
    O78      O        0.25235    0.68285    0.24225    1.000
    O79      O        0.25394    0.07544    0.93084    1.000
    O80      O        0.21553    0.99713    0.07573    1.000
    C81      C        0.25201    0.71651    0.17671    1.000
    C82      C        0.24403    0.81133    0.10043    1.000
    C83      C        0.23712    0.95042    0.02042    1.000
    C84      C        0.24551    0.86201    0.09351    1.000
    H85      H        0.25210    0.83710    0.13760    1.000
    C86      C        0.23566    0.00896    0.01056    1.000
    C87      C        0.23312    0.85002    0.03482    1.000
    H88      H        0.23220    0.81610    0.03900    1.000
    C89      C        0.22320    0.93800    0.96390    1.000
    H90      H        0.21390    0.96420    0.92120    1.000
    C91      C        0.22736    0.98626    0.95606    1.000
    H92      H        0.22370    0.04470    0.90620    1.000
    O93      O        0.46048    0.55988    0.83918    1.000
    O94      O        0.39446    0.64996    0.87776    1.000
    O95      O        0.42234    0.37834    0.23394    1.000
    O96      O        0.32084    0.52014    0.17894    1.000
    C97      C        0.43185    0.57215    0.89265    1.000
    C98      C        0.44525    0.49045    0.97685    1.000
    C99      C        0.42807    0.42647    0.11447    1.000
    C100     C        0.41040    0.50180    0.03920    1.000
    H101     H        0.37430    0.56120    0.03060    1.000
    C102     C        0.38782    0.44252    0.18082    1.000
    C103     C        0.49880    0.40250    0.98920    1.000
    H104     H        0.52250    0.39430    0.94730    1.000
    C105     C        0.51702    0.32622    0.06502    1.000
    H106     H        0.55270    0.26670    0.07410    1.000
    C107     C        0.48213    0.33873    0.12673    1.000
    H108     H        0.49520    0.28760    0.17670    1.000
    Co109    Co       0.22001    0.15101    0.95189    1.000
    Co110    Co       0.25196    0.24212    0.93617    1.000
    O111     O        0.16362    0.20462    0.01302    1.000
    O113     O        0.24236    0.33236    0.82226    1.000
    O114     O        0.24765    0.25775    0.81715    1.000
    O115     O        0.24606    0.56916    0.42456    1.000
    O116     O        0.28447    0.42427    0.50287    1.000
    C117     C        0.24799    0.32329    0.78349    1.000
    C118     C        0.25597    0.39957    0.68867    1.000
    C119     C        0.26288    0.47958    0.54958    1.000
    C120     C        0.25449    0.40649    0.63799    1.000
    H121     H        0.24790    0.36240    0.66290    1.000
    C122     C        0.26434    0.48944    0.49104    1.000
    C123     C        0.26688    0.46518    0.64998    1.000
    H124     H        0.26780    0.46100    0.68390    1.000
    C125     C        0.27680    0.53610    0.56200    1.000
    H126     H        0.28610    0.57880    0.53580    1.000
    C127     C        0.27264    0.54394    0.51374    1.000
    H128     H        0.27630    0.59380    0.45530    1.000
    O129     O        0.03952    0.66082    0.94012    1.000
    O130     O        0.10554    0.62224    0.85004    1.000
    O131     O        0.07766    0.26606    0.12166    1.000
    O132     O        0.17916    0.32106    0.97986    1.000
    C133     C        0.06815    0.60735    0.92785    1.000
    C134     C        0.05475    0.52315    0.00955    1.000
    C135     C        0.07193    0.38553    0.07353    1.000
    C136     C        0.08960    0.46080    0.99820    1.000
    H137     H        0.12570    0.46940    0.93880    1.000
    C138     C        0.11218    0.31918    0.05748    1.000
    C139     C        0.00120    0.51080    0.09750    1.000
    H140     H        0.97750    0.55270    0.10570    1.000
    C141     C        0.98298    0.43498    0.17378    1.000
    H142     H        0.94730    0.42590    0.23330    1.000
    C143     C        0.01787    0.37327    0.16127    1.000
    H144     H        0.00480    0.32330    0.21240    1.000
    Co145    Co       0.15101    0.95189    0.22001    1.000
    Co146    Co       0.24212    0.93617    0.25196    1.000
    O147     O        0.20462    0.01302    0.16362    1.000
    O149     O        0.33236    0.82226    0.24236    1.000
    O150     O        0.25775    0.81715    0.24765    1.000
    O151     O        0.56916    0.42456    0.24606    1.000
    O152     O        0.42427    0.50287    0.28447    1.000
    C153     C        0.32329    0.78349    0.24799    1.000
    C154     C        0.39957    0.68867    0.25597    1.000
    C155     C        0.47958    0.54958    0.26288    1.000
    C156     C        0.40649    0.63799    0.25449    1.000
    H157     H        0.36240    0.66290    0.24790    1.000
    C158     C        0.48944    0.49104    0.26434    1.000
    C159     C        0.46518    0.64998    0.26688    1.000
    H160     H        0.46100    0.68390    0.26780    1.000
    C161     C        0.53610    0.56200    0.27680    1.000
    H162     H        0.57880    0.53580    0.28610    1.000
    C163     C        0.54394    0.51374    0.27264    1.000
    H164     H        0.59380    0.45530    0.27630    1.000
    O165     O        0.66082    0.94012    0.03952    1.000
    O166     O        0.62224    0.85004    0.10554    1.000
    O167     O        0.26606    0.12166    0.07766    1.000
    O168     O        0.32106    0.97986    0.17916    1.000
    C169     C        0.60735    0.92785    0.06815    1.000
    C170     C        0.52315    0.00955    0.05475    1.000
    C171     C        0.38553    0.07353    0.07193    1.000
    C172     C        0.46080    0.99820    0.08960    1.000
    H173     H        0.46940    0.93880    0.12570    1.000
    C174     C        0.31918    0.05748    0.11218    1.000
    C175     C        0.51080    0.09750    0.00120    1.000
    H176     H        0.55270    0.10570    0.97750    1.000
    C177     C        0.43498    0.17378    0.98298    1.000
    H178     H        0.42590    0.23330    0.94730    1.000
    C179     C        0.37327    0.16127    0.01787    1.000
    H180     H        0.32330    0.21240    0.00480    1.000
    Co181    Co       0.95189    0.22001    0.15101    1.000
    Co182    Co       0.93617    0.25196    0.24212    1.000
    O183     O        0.01302    0.16362    0.20462    1.000
    O185     O        0.82226    0.24236    0.33236    1.000
    O186     O        0.81715    0.24765    0.25775    1.000
    O187     O        0.42456    0.24606    0.56916    1.000
    O188     O        0.50287    0.28447    0.42427    1.000
    C189     C        0.78349    0.24799    0.32329    1.000
    C190     C        0.68867    0.25597    0.39957    1.000
    C191     C        0.54958    0.26288    0.47958    1.000
    C192     C        0.63799    0.25449    0.40649    1.000
    H193     H        0.66290    0.24790    0.36240    1.000
    C194     C        0.49104    0.26434    0.48944    1.000
    C195     C        0.64998    0.26688    0.46518    1.000
    H196     H        0.68390    0.26780    0.46100    1.000
    C197     C        0.56200    0.27680    0.53610    1.000
    H198     H        0.53580    0.28610    0.57880    1.000
    C199     C        0.51374    0.27264    0.54394    1.000
    H200     H        0.45530    0.27630    0.59380    1.000
    O201     O        0.94012    0.03952    0.66082    1.000
    O202     O        0.85004    0.10554    0.62224    1.000
    O203     O        0.12166    0.07766    0.26606    1.000
    O204     O        0.97986    0.17916    0.32106    1.000
    C205     C        0.92785    0.06815    0.60735    1.000
    C206     C        0.00955    0.05475    0.52315    1.000
    C207     C        0.07353    0.07193    0.38553    1.000
    C208     C        0.99820    0.08960    0.46080    1.000
    H209     H        0.93880    0.12570    0.46940    1.000
    C210     C        0.05748    0.11218    0.31918    1.000
    C211     C        0.09750    0.00120    0.51080    1.000
    H212     H        0.10570    0.97750    0.55270    1.000
    C213     C        0.17378    0.98298    0.43498    1.000
    H214     H        0.23330    0.94730    0.42590    1.000
    C215     C        0.16127    0.01787    0.37327    1.000
    H216     H        0.21240    0.00480    0.32330    1.000
    Co217    Co       0.65101    0.72001    0.45189    1.000
    Co218    Co       0.74212    0.75196    0.43617    1.000
    O219     O        0.70462    0.66362    0.51302    1.000
    O221     O        0.83236    0.74236    0.32226    1.000
    O222     O        0.75775    0.74765    0.31715    1.000
    O223     O        0.06916    0.74606    0.92456    1.000
    O224     O        0.92427    0.78447    0.00287    1.000
    C225     C        0.82329    0.74799    0.28349    1.000
    C226     C        0.89957    0.75597    0.18867    1.000
    C227     C        0.97958    0.76288    0.04958    1.000
    C228     C        0.90649    0.75449    0.13799    1.000
    H229     H        0.86240    0.74790    0.16290    1.000
    C230     C        0.98944    0.76434    0.99104    1.000
    C231     C        0.96518    0.76688    0.14998    1.000
    H232     H        0.96100    0.76780    0.18390    1.000
    C233     C        0.03610    0.77680    0.06200    1.000
    H234     H        0.07880    0.78610    0.03580    1.000
    C235     C        0.04394    0.77264    0.01374    1.000
    H236     H        0.09380    0.77630    0.95530    1.000
    O237     O        0.16082    0.53952    0.44012    1.000
    O238     O        0.12224    0.60554    0.35004    1.000
    O239     O        0.76606    0.57766    0.62166    1.000
    O240     O        0.82106    0.67916    0.47986    1.000
    C241     C        0.10735    0.56815    0.42785    1.000
    C242     C        0.02315    0.55475    0.50955    1.000
    C243     C        0.88553    0.57193    0.57353    1.000
    C244     C        0.96080    0.58960    0.49820    1.000
    H245     H        0.96940    0.62570    0.43880    1.000
    C246     C        0.81918    0.61218    0.55748    1.000
    C247     C        0.01080    0.50120    0.59750    1.000
    H248     H        0.05270    0.47750    0.60570    1.000
    C249     C        0.93498    0.48298    0.67378    1.000
    H250     H        0.92590    0.44730    0.73330    1.000
    C251     C        0.87327    0.51787    0.66127    1.000
    H252     H        0.82330    0.50480    0.71240    1.000
    Co253    Co       0.45189    0.65101    0.72001    1.000
    Co254    Co       0.43617    0.74212    0.75196    1.000
    O255     O        0.51302    0.70462    0.66362    1.000
    O257     O        0.32226    0.83236    0.74236    1.000
    O258     O        0.31715    0.75775    0.74765    1.000
    O259     O        0.92456    0.06916    0.74606    1.000
    O260     O        0.00287    0.92427    0.78447    1.000
    C261     C        0.28349    0.82329    0.74799    1.000
    C262     C        0.18867    0.89957    0.75597    1.000
    C263     C        0.04958    0.97958    0.76288    1.000
    C264     C        0.13799    0.90649    0.75449    1.000
    H265     H        0.16290    0.86240    0.74790    1.000
    C266     C        0.99104    0.98944    0.76434    1.000
    C267     C        0.14998    0.96518    0.76688    1.000
    H268     H        0.18390    0.96100    0.76780    1.000
    C269     C        0.06200    0.03610    0.77680    1.000
    H270     H        0.03580    0.07880    0.78610    1.000
    C271     C        0.01374    0.04394    0.77264    1.000
    H272     H        0.95530    0.09380    0.77630    1.000
    O273     O        0.44012    0.16082    0.53952    1.000
    O274     O        0.35004    0.12224    0.60554    1.000
    O275     O        0.62166    0.76606    0.57766    1.000
    O276     O        0.47986    0.82106    0.67916    1.000
    C277     C        0.42785    0.10735    0.56815    1.000
    C278     C        0.50955    0.02315    0.55475    1.000
    C279     C        0.57353    0.88553    0.57193    1.000
    C280     C        0.49820    0.96080    0.58960    1.000
    H281     H        0.43880    0.96940    0.62570    1.000
    C282     C        0.55748    0.81918    0.61218    1.000
    C283     C        0.59750    0.01080    0.50120    1.000
    H284     H        0.60570    0.05270    0.47750    1.000
    C285     C        0.67378    0.93498    0.48298    1.000
    H286     H        0.73330    0.92590    0.44730    1.000
    C287     C        0.66127    0.87327    0.51787    1.000
    H288     H        0.71240    0.82330    0.50480    1.000
    Co289    Co       0.72001    0.45189    0.65101    1.000
    Co290    Co       0.75196    0.43617    0.74212    1.000
    O291     O        0.66362    0.51302    0.70462    1.000
    O293     O        0.74236    0.32226    0.83236    1.000
    O294     O        0.74765    0.31715    0.75775    1.000
    O295     O        0.74606    0.92456    0.06916    1.000
    O296     O        0.78447    0.00287    0.92427    1.000
    C297     C        0.74799    0.28349    0.82329    1.000
    C298     C        0.75597    0.18867    0.89957    1.000
    C299     C        0.76288    0.04958    0.97958    1.000
    C300     C        0.75449    0.13799    0.90649    1.000
    H301     H        0.74790    0.16290    0.86240    1.000
    C302     C        0.76434    0.99104    0.98944    1.000
    C303     C        0.76688    0.14998    0.96518    1.000
    H304     H        0.76780    0.18390    0.96100    1.000
    C305     C        0.77680    0.06200    0.03610    1.000
    H306     H        0.78610    0.03580    0.07880    1.000
    C307     C        0.77264    0.01374    0.04394    1.000
    H308     H        0.77630    0.95530    0.09380    1.000
    O309     O        0.53952    0.44012    0.16082    1.000
    O310     O        0.60554    0.35004    0.12224    1.000
    O311     O        0.57766    0.62166    0.76606    1.000
    O312     O        0.67916    0.47986    0.82106    1.000
    C313     C        0.56815    0.42785    0.10735    1.000
    C314     C        0.55475    0.50955    0.02315    1.000
    C315     C        0.57193    0.57353    0.88553    1.000
    C316     C        0.58960    0.49820    0.96080    1.000
    H317     H        0.62570    0.43880    0.96940    1.000
    C318     C        0.61218    0.55748    0.81918    1.000
    C319     C        0.50120    0.59750    0.01080    1.000
    H320     H        0.47750    0.60570    0.05270    1.000
    C321     C        0.48298    0.67378    0.93498    1.000
    H322     H        0.44730    0.73330    0.92590    1.000
    C323     C        0.51787    0.66127    0.87327    1.000
    H324     H        0.50480    0.71240    0.82330    1.000
    Co325    Co       0.77999    0.84899    0.04811    1.000
    Co326    Co       0.74804    0.75788    0.06383    1.000
    O327     O        0.83638    0.79538    0.98698    1.000
    O329     O        0.75764    0.66764    0.17774    1.000
    O330     O        0.75235    0.74225    0.18285    1.000
    O331     O        0.75394    0.43084    0.57544    1.000
    O332     O        0.71553    0.57573    0.49713    1.000
    C333     C        0.75201    0.67671    0.21651    1.000
    C334     C        0.74403    0.60043    0.31133    1.000
    C335     C        0.73712    0.52042    0.45042    1.000
    C336     C        0.74551    0.59351    0.36201    1.000
    H337     H        0.75210    0.63760    0.33710    1.000
    C338     C        0.73566    0.51056    0.50896    1.000
    C339     C        0.73312    0.53482    0.35002    1.000
    H340     H        0.73220    0.53900    0.31610    1.000
    C341     C        0.72320    0.46390    0.43800    1.000
    H342     H        0.71390    0.42120    0.46420    1.000
    C343     C        0.72736    0.45606    0.48626    1.000
    H344     H        0.72370    0.40620    0.54470    1.000
    O345     O        0.96048    0.33918    0.05988    1.000
    O346     O        0.89446    0.37776    0.14996    1.000
    O347     O        0.92234    0.73394    0.87834    1.000
    O348     O        0.82084    0.67894    0.02014    1.000
    C349     C        0.93185    0.39265    0.07215    1.000
    C350     C        0.94525    0.47685    0.99045    1.000
    C351     C        0.92807    0.61447    0.92647    1.000
    C352     C        0.91040    0.53920    0.00180    1.000
    H353     H        0.87430    0.53060    0.06120    1.000
    C354     C        0.88782    0.68082    0.94252    1.000
    C355     C        0.99880    0.48920    0.90250    1.000
    H356     H        0.02250    0.44730    0.89430    1.000
    C357     C        0.01702    0.56502    0.82622    1.000
    H358     H        0.05270    0.57410    0.76670    1.000
    C359     C        0.98213    0.62673    0.83873    1.000
    H360     H        0.99520    0.67670    0.78760    1.000
    Co361    Co       0.84899    0.04811    0.77999    1.000
    Co362    Co       0.75788    0.06383    0.74804    1.000
    O363     O        0.79538    0.98698    0.83638    1.000
    O365     O        0.66764    0.17774    0.75764    1.000
    O366     O        0.74225    0.18285    0.75235    1.000
    O367     O        0.43084    0.57544    0.75394    1.000
    O368     O        0.57573    0.49713    0.71553    1.000
    C369     C        0.67671    0.21651    0.75201    1.000
    C370     C        0.60043    0.31133    0.74403    1.000
    C371     C        0.52042    0.45042    0.73712    1.000
    C372     C        0.59351    0.36201    0.74551    1.000
    H373     H        0.63760    0.33710    0.75210    1.000
    C374     C        0.51056    0.50896    0.73566    1.000
    C375     C        0.53482    0.35002    0.73312    1.000
    H376     H        0.53900    0.31610    0.73220    1.000
    C377     C        0.46390    0.43800    0.72320    1.000
    H378     H        0.42120    0.46420    0.71390    1.000
    C379     C        0.45606    0.48626    0.72736    1.000
    H380     H        0.40620    0.54470    0.72370    1.000
    O381     O        0.33918    0.05988    0.96048    1.000
    O382     O        0.37776    0.14996    0.89446    1.000
    O383     O        0.73394    0.87834    0.92234    1.000
    O384     O        0.67894    0.02014    0.82084    1.000
    C385     C        0.39265    0.07215    0.93185    1.000
    C386     C        0.47685    0.99045    0.94525    1.000
    C387     C        0.61447    0.92647    0.92807    1.000
    C388     C        0.53920    0.00180    0.91040    1.000
    H389     H        0.53060    0.06120    0.87430    1.000
    C390     C        0.68082    0.94252    0.88782    1.000
    C391     C        0.48920    0.90250    0.99880    1.000
    H392     H        0.44730    0.89430    0.02250    1.000
    C393     C        0.56502    0.82622    0.01702    1.000
    H394     H        0.57410    0.76670    0.05270    1.000
    C395     C        0.62673    0.83873    0.98213    1.000
    H396     H        0.67670    0.78760    0.99520    1.000
    Co397    Co       0.04811    0.77999    0.84899    1.000
    Co398    Co       0.06383    0.74804    0.75788    1.000
    O399     O        0.98698    0.83638    0.79538    1.000
    O401     O        0.17774    0.75764    0.66764    1.000
    O402     O        0.18285    0.75235    0.74225    1.000
    O403     O        0.57544    0.75394    0.43084    1.000
    O404     O        0.49713    0.71553    0.57573    1.000
    C405     C        0.21651    0.75201    0.67671    1.000
    C406     C        0.31133    0.74403    0.60043    1.000
    C407     C        0.45042    0.73712    0.52042    1.000
    C408     C        0.36201    0.74551    0.59351    1.000
    H409     H        0.33710    0.75210    0.63760    1.000
    C410     C        0.50896    0.73566    0.51056    1.000
    C411     C        0.35002    0.73312    0.53482    1.000
    H412     H        0.31610    0.73220    0.53900    1.000
    C413     C        0.43800    0.72320    0.46390    1.000
    H414     H        0.46420    0.71390    0.42120    1.000
    C415     C        0.48626    0.72736    0.45606    1.000
    H416     H        0.54470    0.72370    0.40620    1.000
    O417     O        0.05988    0.96048    0.33918    1.000
    O418     O        0.14996    0.89446    0.37776    1.000
    O419     O        0.87834    0.92234    0.73394    1.000
    O420     O        0.02014    0.82084    0.67894    1.000
    C421     C        0.07215    0.93185    0.39265    1.000
    C422     C        0.99045    0.94525    0.47685    1.000
    C423     C        0.92647    0.92807    0.61447    1.000
    C424     C        0.00180    0.91040    0.53920    1.000
    H425     H        0.06120    0.87430    0.53060    1.000
    C426     C        0.94252    0.88782    0.68082    1.000
    C427     C        0.90250    0.99880    0.48920    1.000
    H428     H        0.89430    0.02250    0.44730    1.000
    C429     C        0.82622    0.01702    0.56502    1.000
    H430     H        0.76670    0.05270    0.57410    1.000
    C431     C        0.83873    0.98213    0.62673    1.000
    H432     H        0.78760    0.99520    0.67670    1.000
    Co433    Co       0.35957    0.35957    0.35957    1.000
    Co434    Co       0.14043    0.14043    0.14043    1.000
    Co435    Co       0.64043    0.64043    0.64043    1.000
    Co436    Co       0.85957    0.85957    0.85957    1.000
    K437     K        0.34953    0.15047    0.75000    1.000
    K438     K        0.75000    0.34953    0.15047    1.000
    K439     K        0.15047    0.75000    0.34953    1.000
    K440     K        0.65047    0.84953    0.25000    1.000
    K441     K        0.25000    0.65047    0.84953    1.000
    K442     K        0.84953    0.25000    0.65047    1.000
