# CIF file generated by openbabel 3.1.0, see https://openbabel.org
data_I
_chemical_name_common 'image0'
_cell_length_a 33.463
_cell_length_b 18.874
_cell_length_c 20.335
_cell_angle_alpha 90
_cell_angle_beta 92.333
_cell_angle_gamma 90
_space_group_name_H-M_alt 'P 1'
_space_group_name_Hall 'P 1'
loop_
    _symmetry_equiv_pos_as_xyz
    x,y,z
loop_
    _atom_site_label
    _atom_site_type_symbol
    _atom_site_fract_x
    _atom_site_fract_y
    _atom_site_fract_z
    _atom_site_occupancy
    Ag1      Ag       0.07408    0.87922    0.22528    1.000
    Ag2      Ag       0.59580    0.63310    0.75540    1.000
    Ag3      Ag       0.81958    0.86509    0.48227    1.000
    Ag4      Ag       0.66292    0.17132    0.53828    1.000
    C1       C        0.86540    0.16720    0.41200    1.000
    C2       C        0.89680    0.18540    0.45350    1.000
    H1       H        0.91960    0.15590    0.46060    1.000
    C3       C        0.89280    0.24980    0.48430    1.000
    C4       C        0.86160    0.29590    0.47350    1.000
    H2       H        0.86070    0.34100    0.49410    1.000
    C5       C        0.83210    0.27260    0.43120    1.000
    C6       C        0.83330    0.20940    0.39700    1.000
    H3       H        0.81310    0.19630    0.36510    1.000
    C7       C        0.89750    0.07810    0.34740    1.000
    C8       C        0.92360    0.11960    0.31280    1.000
    C9       C        0.95650    0.08990    0.28260    1.000
    H4       H        0.97460    0.11870    0.25950    1.000
    C10      C        0.96220    0.01570    0.28750    1.000
    C11      C        0.93530    0.97340    0.31770    1.000
    H5       H        0.93870    0.92340    0.31850    1.000
    C12      C        0.90250    0.00470    0.34760    1.000
    C13      C        0.91920    0.19470    0.29920    1.000
    C14      C        0.99740    0.98580    0.26040    1.000
    C15      C        0.87420    0.96240    0.37880    1.000
    C16      C        0.96130    0.25510    0.52210    1.000
    C17      C        0.98220    0.28420    0.46920    1.000
    C18      C        0.02190    0.26700    0.46190    1.000
    H6       H        0.03560    0.28480    0.42530    1.000
    C19      C        0.04170    0.22400    0.50750    1.000
    C20      C        0.02150    0.19740    0.56180    1.000
    H7       H        0.03540    0.16890    0.59370    1.000
    C21      C        0.98190    0.21260    0.56890    1.000
    C22      C        0.96260    0.33670    0.42640    1.000
    C23      C        0.08320    0.20790    0.49930    1.000
    C24      C        0.95990    0.18490    0.62350    1.000
    C25      C        0.77630    0.31290    0.36580    1.000
    C26      C        0.78940    0.33910    0.30550    1.000
    C27      C        0.76560    0.33540    0.24970    1.000
    H8       H        0.77470    0.35410    0.20960    1.000
    C28      C        0.72820    0.30430    0.25180    1.000
    C29      C        0.71380    0.27860    0.30920    1.000
    H9       H        0.68780    0.25840    0.30980    1.000
    C30      C        0.73780    0.28250    0.36680    1.000
    C31      C        0.82850    0.37230    0.30340    1.000
    C32      C        0.70370    0.29970    0.19130    1.000
    C33      C        0.72360    0.25430    0.42780    1.000
    C34      C        0.68150    0.76070    0.61320    1.000
    C35      C        0.67250    0.81730    0.64950    1.000
    H10      H        0.68970    0.83330    0.68480    1.000
    C36      C        0.63720    0.85110    0.63290    1.000
    C37      C        0.60990    0.82650    0.58740    1.000
    H11      H        0.58460    0.84850    0.57990    1.000
    C38      C        0.62110    0.76870    0.55320    1.000
    C39      C        0.65650    0.73270    0.56490    1.000
    H12      H        0.66310    0.69130    0.54110    1.000
    C40      C        0.72640    0.66280    0.60540    1.000
    C41      C        0.75450    0.65630    0.55580    1.000
    C42      C        0.76410    0.58780    0.53290    1.000
    H13      H        0.78320    0.58230    0.49990    1.000
    C43      C        0.74580    0.52900    0.55870    1.000
    C44      C        0.71890    0.53760    0.60980    1.000
    H14      H        0.70730    0.49690    0.62900    1.000
    C45      C        0.70920    0.60240    0.63170    1.000
    C46      C        0.77180    0.71770    0.52960    1.000
    C47      C        0.75250    0.45980    0.53350    1.000
    C48      C        0.68160    0.60850    0.68340    1.000
    C49      C        0.59140    0.93100    0.68160    1.000
    C50      C        0.58130    0.99950    0.66510    1.000
    C51      C        0.54380    0.02700    0.68150    1.000
    H15      H        0.53740    0.07510    0.67200    1.000
    C52      C        0.51650    0.98390    0.71140    1.000
    C53      C        0.52610    0.91420    0.72650    1.000
    H16      H        0.50700    0.88430    0.74580    1.000
    C54      C        0.56250    0.88900    0.71390    1.000
    C55      C        0.60940    0.04290    0.63150    1.000
    C56      C        0.47890    0.01320    0.72740    1.000
    C57      C        0.57300    0.81590    0.73440    1.000
    C58      C        0.55580    0.74930    0.50270    1.000
    C59      C        0.53340    0.71660    0.55070    1.000
    C60      C        0.49250    0.72280    0.54820    1.000
    H17      H        0.47690    0.69950    0.57970    1.000
    C61      C        0.47400    0.76450    0.49790    1.000
    C62      C        0.49620    0.79180    0.44780    1.000
    H18      H        0.48340    0.81450    0.41100    1.000
    C63      C        0.53660    0.78540    0.45250    1.000
    C64      C        0.55190    0.66730    0.59850    1.000
    C65      C        0.43160    0.77210    0.49470    1.000
    C66      C        0.56100    0.81560    0.40230    1.000
    N1       N        0.91490    0.25420    0.29380    1.000
    N2       N        0.02540    0.96150    0.23930    1.000
    N3       N        0.85120    0.92780    0.40670    1.000
    N4       N        0.94650    0.37460    0.39370    1.000
    N5       N        0.11580    0.19750    0.49290    1.000
    N6       N        0.94340    0.16360    0.66680    1.000
    N7       N        0.85930    0.39480    0.29930    1.000
    N8       N        0.68740    0.29870    0.14200    1.000
    N9       N        0.71020    0.23040    0.47250    1.000
    N10      N        0.78600    0.76560    0.50670    1.000
    N11      N        0.75430    0.40550    0.50890    1.000
    N12      N        0.65830    0.61750    0.72150    1.000
    N13      N        0.63160    0.07250    0.60310    1.000
    N14      N        0.44900    0.03850    0.73940    1.000
    N15      N        0.58290    0.75960    0.74110    1.000
    N16      N        0.56910    0.63730    0.63780    1.000
    N17      N        0.39790    0.77880    0.49370    1.000
    N18      N        0.58130    0.83820    0.36380    1.000
    O1       O        0.86560    0.10170    0.37810    1.000
    O2       O        0.92250    0.27200    0.53190    1.000
    O3       O        0.79900    0.31880    0.42170    1.000
    O4       O        0.71910    0.73000    0.62910    1.000
    O5       O        0.62940    0.91050    0.67150    1.000
    O6       O        0.59650    0.73880    0.50120    1.000
    Ag5      Ag       0.92592    0.37922    0.27472    1.000
    Ag6      Ag       0.40420    0.13310    0.74460    1.000
    Ag7      Ag       0.18042    0.36509    0.01773    1.000
    Ag8      Ag       0.33708    0.67132    0.96172    1.000
    C67      C        0.13460    0.66720    0.08800    1.000
    C68      C        0.10320    0.68540    0.04650    1.000
    H19      H        0.08040    0.65590    0.03940    1.000
    C69      C        0.10720    0.74980    0.01570    1.000
    C70      C        0.13840    0.79590    0.02650    1.000
    H20      H        0.13930    0.84100    0.00590    1.000
    C71      C        0.16790    0.77260    0.06880    1.000
    C72      C        0.16670    0.70940    0.10300    1.000
    H21      H        0.18690    0.69630    0.13490    1.000
    C73      C        0.10250    0.57810    0.15260    1.000
    C74      C        0.07640    0.61960    0.18720    1.000
    C75      C        0.04350    0.58990    0.21740    1.000
    H22      H        0.02540    0.61870    0.24050    1.000
    C76      C        0.03780    0.51570    0.21250    1.000
    C77      C        0.06470    0.47340    0.18230    1.000
    H23      H        0.06130    0.42340    0.18150    1.000
    C78      C        0.09750    0.50470    0.15240    1.000
    C79      C        0.08080    0.69470    0.20080    1.000
    C80      C        0.00260    0.48580    0.23960    1.000
    C81      C        0.12580    0.46240    0.12120    1.000
    C82      C        0.03870    0.75510    0.97790    1.000
    C83      C        0.01780    0.78420    0.03080    1.000
    C84      C        0.97810    0.76700    0.03810    1.000
    H24      H        0.96440    0.78480    0.07470    1.000
    C85      C        0.95830    0.72400    0.99250    1.000
    C86      C        0.97850    0.69740    0.93820    1.000
    H25      H        0.96460    0.66890    0.90630    1.000
    C87      C        0.01810    0.71260    0.93110    1.000
    C88      C        0.03740    0.83670    0.07360    1.000
    C89      C        0.91680    0.70790    0.00070    1.000
    C90      C        0.04010    0.68490    0.87650    1.000
    C91      C        0.22370    0.81290    0.13420    1.000
    C92      C        0.21060    0.83910    0.19450    1.000
    C93      C        0.23440    0.83540    0.25030    1.000
    H26      H        0.22530    0.85410    0.29040    1.000
    C94      C        0.27180    0.80430    0.24820    1.000
    C95      C        0.28620    0.77860    0.19080    1.000
    H27      H        0.31220    0.75840    0.19020    1.000
    C96      C        0.26220    0.78250    0.13320    1.000
    C97      C        0.17150    0.87230    0.19660    1.000
    C98      C        0.29630    0.79970    0.30870    1.000
    C99      C        0.27640    0.75430    0.07220    1.000
    C100     C        0.31850    0.26070    0.88680    1.000
    C101     C        0.32750    0.31730    0.85050    1.000
    H28      H        0.31030    0.33330    0.81520    1.000
    C102     C        0.36280    0.35110    0.86710    1.000
    C103     C        0.39010    0.32650    0.91260    1.000
    H29      H        0.41540    0.34850    0.92010    1.000
    C104     C        0.37890    0.26870    0.94680    1.000
    C105     C        0.34350    0.23270    0.93510    1.000
    H30      H        0.33690    0.19130    0.95890    1.000
    C106     C        0.27360    0.16280    0.89460    1.000
    C107     C        0.24550    0.15630    0.94420    1.000
    C108     C        0.23590    0.08780    0.96710    1.000
    H31      H        0.21680    0.08230    0.00010    1.000
    C109     C        0.25420    0.02900    0.94130    1.000
    C110     C        0.28110    0.03760    0.89020    1.000
    H32      H        0.29270    0.99690    0.87100    1.000
    C111     C        0.29080    0.10240    0.86830    1.000
    C112     C        0.22820    0.21770    0.97040    1.000
    C113     C        0.24750    0.95980    0.96650    1.000
    C114     C        0.31840    0.10850    0.81660    1.000
    C115     C        0.40860    0.43100    0.81840    1.000
    C116     C        0.41870    0.49950    0.83490    1.000
    C117     C        0.45620    0.52700    0.81850    1.000
    H33      H        0.46260    0.57510    0.82800    1.000
    C118     C        0.48350    0.48390    0.78860    1.000
    C119     C        0.47390    0.41420    0.77350    1.000
    H34      H        0.49300    0.38430    0.75420    1.000
    C120     C        0.43750    0.38900    0.78610    1.000
    C121     C        0.39060    0.54290    0.86850    1.000
    C122     C        0.52110    0.51320    0.77260    1.000
    C123     C        0.42700    0.31590    0.76560    1.000
    C124     C        0.44420    0.24930    0.99730    1.000
    C125     C        0.46660    0.21660    0.94930    1.000
    C126     C        0.50750    0.22280    0.95180    1.000
    H35      H        0.52310    0.19950    0.92030    1.000
    C127     C        0.52600    0.26450    0.00210    1.000
    C128     C        0.50380    0.29180    0.05220    1.000
    H36      H        0.51660    0.31450    0.08900    1.000
    C129     C        0.46340    0.28540    0.04750    1.000
    C130     C        0.44810    0.16730    0.90150    1.000
    C131     C        0.56840    0.27210    0.00530    1.000
    C132     C        0.43900    0.31560    0.09770    1.000
    N19      N        0.08510    0.75420    0.20620    1.000
    N20      N        0.97460    0.46150    0.26070    1.000
    N21      N        0.14880    0.42780    0.09330    1.000
    N22      N        0.05350    0.87460    0.10630    1.000
    N23      N        0.88420    0.69750    0.00710    1.000
    N24      N        0.05660    0.66360    0.83320    1.000
    N25      N        0.14070    0.89480    0.20070    1.000
    N26      N        0.31260    0.79870    0.35800    1.000
    N27      N        0.28980    0.73040    0.02750    1.000
    N28      N        0.21400    0.26560    0.99330    1.000
    N29      N        0.24570    0.90550    0.99110    1.000
    N30      N        0.34170    0.11750    0.77850    1.000
    N31      N        0.36840    0.57250    0.89690    1.000
    N32      N        0.55100    0.53850    0.76060    1.000
    N33      N        0.41710    0.25960    0.75890    1.000
    N34      N        0.43090    0.13730    0.86220    1.000
    N35      N        0.60210    0.27880    0.00630    1.000
    N36      N        0.41870    0.33820    0.13620    1.000
    O7       O        0.13440    0.60170    0.12190    1.000
    O8       O        0.07750    0.77200    0.96810    1.000
    O9       O        0.20100    0.81880    0.07830    1.000
    O10      O        0.28090    0.23000    0.87090    1.000
    O11      O        0.37060    0.41050    0.82850    1.000
    O12      O        0.40350    0.23880    0.99880    1.000
    Ag9      Ag       0.92592    0.12078    0.77472    1.000
    Ag10     Ag       0.40420    0.36690    0.24460    1.000
    Ag11     Ag       0.18042    0.13491    0.51773    1.000
    Ag12     Ag       0.33708    0.82868    0.46172    1.000
    C133     C        0.13460    0.83280    0.58800    1.000
    C134     C        0.10320    0.81460    0.54650    1.000
    H37      H        0.08040    0.84410    0.53940    1.000
    C135     C        0.10720    0.75020    0.51570    1.000
    C136     C        0.13840    0.70410    0.52650    1.000
    H38      H        0.13930    0.65900    0.50590    1.000
    C137     C        0.16790    0.72740    0.56880    1.000
    C138     C        0.16670    0.79060    0.60300    1.000
    H39      H        0.18690    0.80370    0.63490    1.000
    C139     C        0.10250    0.92190    0.65260    1.000
    C140     C        0.07640    0.88040    0.68720    1.000
    C141     C        0.04350    0.91010    0.71740    1.000
    H40      H        0.02540    0.88130    0.74050    1.000
    C142     C        0.03780    0.98430    0.71250    1.000
    C143     C        0.06470    0.02660    0.68230    1.000
    H41      H        0.06130    0.07660    0.68150    1.000
    C144     C        0.09750    0.99530    0.65240    1.000
    C145     C        0.08080    0.80530    0.70080    1.000
    C146     C        0.00260    0.01420    0.73960    1.000
    C147     C        0.12580    0.03760    0.62120    1.000
    C148     C        0.03870    0.74490    0.47790    1.000
    C149     C        0.01780    0.71580    0.53080    1.000
    C150     C        0.97810    0.73300    0.53810    1.000
    H42      H        0.96440    0.71520    0.57470    1.000
    C151     C        0.95830    0.77600    0.49250    1.000
    C152     C        0.97850    0.80260    0.43820    1.000
    H43      H        0.96460    0.83110    0.40630    1.000
    C153     C        0.01810    0.78740    0.43110    1.000
    C154     C        0.03740    0.66330    0.57360    1.000
    C155     C        0.91680    0.79210    0.50070    1.000
    C156     C        0.04010    0.81510    0.37650    1.000
    C157     C        0.22370    0.68710    0.63420    1.000
    C158     C        0.21060    0.66090    0.69450    1.000
    C159     C        0.23440    0.66460    0.75030    1.000
    H44      H        0.22530    0.64590    0.79040    1.000
    C160     C        0.27180    0.69570    0.74820    1.000
    C161     C        0.28620    0.72140    0.69080    1.000
    H45      H        0.31220    0.74160    0.69020    1.000
    C162     C        0.26220    0.71750    0.63320    1.000
    C163     C        0.17150    0.62770    0.69660    1.000
    C164     C        0.29630    0.70030    0.80870    1.000
    C165     C        0.27640    0.74570    0.57220    1.000
    C166     C        0.31850    0.23930    0.38680    1.000
    C167     C        0.32750    0.18270    0.35050    1.000
    H46      H        0.31030    0.16670    0.31520    1.000
    C168     C        0.36280    0.14890    0.36710    1.000
    C169     C        0.39010    0.17350    0.41260    1.000
    H47      H        0.41540    0.15150    0.42010    1.000
    C170     C        0.37890    0.23130    0.44680    1.000
    C171     C        0.34350    0.26730    0.43510    1.000
    H48      H        0.33690    0.30870    0.45890    1.000
    C172     C        0.27360    0.33720    0.39460    1.000
    C173     C        0.24550    0.34370    0.44420    1.000
    C174     C        0.23590    0.41220    0.46710    1.000
    H49      H        0.21680    0.41770    0.50010    1.000
    C175     C        0.25420    0.47100    0.44130    1.000
    C176     C        0.28110    0.46240    0.39020    1.000
    H50      H        0.29270    0.50310    0.37100    1.000
    C177     C        0.29080    0.39760    0.36830    1.000
    C178     C        0.22820    0.28230    0.47040    1.000
    C179     C        0.24750    0.54020    0.46650    1.000
    C180     C        0.31840    0.39150    0.31660    1.000
    C181     C        0.40860    0.06900    0.31840    1.000
    C182     C        0.41870    0.00050    0.33490    1.000
    C183     C        0.45620    0.97300    0.31850    1.000
    H51      H        0.46260    0.92490    0.32800    1.000
    C184     C        0.48350    0.01610    0.28860    1.000
    C185     C        0.47390    0.08580    0.27350    1.000
    H52      H        0.49300    0.11570    0.25420    1.000
    C186     C        0.43750    0.11100    0.28610    1.000
    C187     C        0.39060    0.95710    0.36850    1.000
    C188     C        0.52110    0.98680    0.27260    1.000
    C189     C        0.42700    0.18410    0.26560    1.000
    C190     C        0.44420    0.25070    0.49730    1.000
    C191     C        0.46660    0.28340    0.44930    1.000
    C192     C        0.50750    0.27720    0.45180    1.000
    H53      H        0.52310    0.30050    0.42030    1.000
    C193     C        0.52600    0.23550    0.50210    1.000
    C194     C        0.50380    0.20820    0.55220    1.000
    H54      H        0.51660    0.18550    0.58900    1.000
    C195     C        0.46340    0.21460    0.54750    1.000
    C196     C        0.44810    0.33270    0.40150    1.000
    C197     C        0.56840    0.22790    0.50530    1.000
    C198     C        0.43900    0.18440    0.59770    1.000
    N37      N        0.08510    0.74580    0.70620    1.000
    N38      N        0.97460    0.03850    0.76070    1.000
    N39      N        0.14880    0.07220    0.59330    1.000
    N40      N        0.05350    0.62540    0.60630    1.000
    N41      N        0.88420    0.80250    0.50710    1.000
    N42      N        0.05660    0.83640    0.33320    1.000
    N43      N        0.14070    0.60520    0.70070    1.000
    N44      N        0.31260    0.70130    0.85800    1.000
    N45      N        0.28980    0.76960    0.52750    1.000
    N46      N        0.21400    0.23440    0.49330    1.000
    N47      N        0.24570    0.59450    0.49110    1.000
    N48      N        0.34170    0.38250    0.27850    1.000
    N49      N        0.36840    0.92750    0.39690    1.000
    N50      N        0.55100    0.96150    0.26060    1.000
    N51      N        0.41710    0.24040    0.25890    1.000
    N52      N        0.43090    0.36270    0.36220    1.000
    N53      N        0.60210    0.22120    0.50630    1.000
    N54      N        0.41870    0.16180    0.63620    1.000
    O13      O        0.13440    0.89830    0.62190    1.000
    O14      O        0.07750    0.72800    0.46810    1.000
    O15      O        0.20100    0.68120    0.57830    1.000
    O16      O        0.28090    0.27000    0.37090    1.000
    O17      O        0.37060    0.08950    0.32850    1.000
    O18      O        0.40350    0.26120    0.49880    1.000
    Ag13     Ag       0.07408    0.62078    0.72528    1.000
    Ag14     Ag       0.59580    0.86690    0.25540    1.000
    Ag15     Ag       0.81958    0.63491    0.98227    1.000
    Ag16     Ag       0.66292    0.32868    0.03828    1.000
    C199     C        0.86540    0.33280    0.91200    1.000
    C200     C        0.89680    0.31460    0.95350    1.000
    H55      H        0.91960    0.34410    0.96060    1.000
    C201     C        0.89280    0.25020    0.98430    1.000
    C202     C        0.86160    0.20410    0.97350    1.000
    H56      H        0.86070    0.15900    0.99410    1.000
    C203     C        0.83210    0.22740    0.93120    1.000
    C204     C        0.83330    0.29060    0.89700    1.000
    H57      H        0.81310    0.30370    0.86510    1.000
    C205     C        0.89750    0.42190    0.84740    1.000
    C206     C        0.92360    0.38040    0.81280    1.000
    C207     C        0.95650    0.41010    0.78260    1.000
    H58      H        0.97460    0.38130    0.75950    1.000
    C208     C        0.96220    0.48430    0.78750    1.000
    C209     C        0.93530    0.52660    0.81770    1.000
    H59      H        0.93870    0.57660    0.81850    1.000
    C210     C        0.90250    0.49530    0.84760    1.000
    C211     C        0.91920    0.30530    0.79920    1.000
    C212     C        0.99740    0.51420    0.76040    1.000
    C213     C        0.87420    0.53760    0.87880    1.000
    C214     C        0.96130    0.24490    0.02210    1.000
    C215     C        0.98220    0.21580    0.96920    1.000
    C216     C        0.02190    0.23300    0.96190    1.000
    H60      H        0.03560    0.21520    0.92530    1.000
    C217     C        0.04170    0.27600    0.00750    1.000
    C218     C        0.02150    0.30260    0.06180    1.000
    H61      H        0.03540    0.33110    0.09370    1.000
    C219     C        0.98190    0.28740    0.06890    1.000
    C220     C        0.96260    0.16330    0.92640    1.000
    C221     C        0.08320    0.29210    0.99930    1.000
    C222     C        0.95990    0.31510    0.12350    1.000
    C223     C        0.77630    0.18710    0.86580    1.000
    C224     C        0.78940    0.16090    0.80550    1.000
    C225     C        0.76560    0.16460    0.74970    1.000
    H62      H        0.77470    0.14590    0.70960    1.000
    C226     C        0.72820    0.19570    0.75180    1.000
    C227     C        0.71380    0.22140    0.80920    1.000
    H63      H        0.68780    0.24160    0.80980    1.000
    C228     C        0.73780    0.21750    0.86680    1.000
    C229     C        0.82850    0.12770    0.80340    1.000
    C230     C        0.70370    0.20030    0.69130    1.000
    C231     C        0.72360    0.24570    0.92780    1.000
    C232     C        0.68150    0.73930    0.11320    1.000
    C233     C        0.67250    0.68270    0.14950    1.000
    H64      H        0.68970    0.66670    0.18480    1.000
    C234     C        0.63720    0.64890    0.13290    1.000
    C235     C        0.60990    0.67350    0.08740    1.000
    H65      H        0.58460    0.65150    0.07990    1.000
    C236     C        0.62110    0.73130    0.05320    1.000
    C237     C        0.65650    0.76730    0.06490    1.000
    H66      H        0.66310    0.80870    0.04110    1.000
    C238     C        0.72640    0.83720    0.10540    1.000
    C239     C        0.75450    0.84370    0.05580    1.000
    C240     C        0.76410    0.91220    0.03290    1.000
    H67      H        0.78320    0.91770    0.99990    1.000
    C241     C        0.74580    0.97100    0.05870    1.000
    C242     C        0.71890    0.96240    0.10980    1.000
    H68      H        0.70730    0.00310    0.12900    1.000
    C243     C        0.70920    0.89760    0.13170    1.000
    C244     C        0.77180    0.78230    0.02960    1.000
    C245     C        0.75250    0.04020    0.03350    1.000
    C246     C        0.68160    0.89150    0.18340    1.000
    C247     C        0.59140    0.56900    0.18160    1.000
    C248     C        0.58130    0.50050    0.16510    1.000
    C249     C        0.54380    0.47300    0.18150    1.000
    H69      H        0.53740    0.42490    0.17200    1.000
    C250     C        0.51650    0.51610    0.21140    1.000
    C251     C        0.52610    0.58580    0.22650    1.000
    H70      H        0.50700    0.61570    0.24580    1.000
    C252     C        0.56250    0.61100    0.21390    1.000
    C253     C        0.60940    0.45710    0.13150    1.000
    C254     C        0.47890    0.48680    0.22740    1.000
    C255     C        0.57300    0.68410    0.23440    1.000
    C256     C        0.55580    0.75070    0.00270    1.000
    C257     C        0.53340    0.78340    0.05070    1.000
    C258     C        0.49250    0.77720    0.04820    1.000
    H71      H        0.47690    0.80050    0.07970    1.000
    C259     C        0.47400    0.73550    0.99790    1.000
    C260     C        0.49620    0.70820    0.94780    1.000
    H72      H        0.48340    0.68550    0.91100    1.000
    C261     C        0.53660    0.71460    0.95250    1.000
    C262     C        0.55190    0.83270    0.09850    1.000
    C263     C        0.43160    0.72790    0.99470    1.000
    C264     C        0.56100    0.68440    0.90230    1.000
    N55      N        0.91490    0.24580    0.79380    1.000
    N56      N        0.02540    0.53850    0.73930    1.000
    N57      N        0.85120    0.57220    0.90670    1.000
    N58      N        0.94650    0.12540    0.89370    1.000
    N59      N        0.11580    0.30250    0.99290    1.000
    N60      N        0.94340    0.33640    0.16680    1.000
    N61      N        0.85930    0.10520    0.79930    1.000
    N62      N        0.68740    0.20130    0.64200    1.000
    N63      N        0.71020    0.26960    0.97250    1.000
    N64      N        0.78600    0.73440    0.00670    1.000
    N65      N        0.75430    0.09450    0.00890    1.000
    N66      N        0.65830    0.88250    0.22150    1.000
    N67      N        0.63160    0.42750    0.10310    1.000
    N68      N        0.44900    0.46150    0.23940    1.000
    N69      N        0.58290    0.74040    0.24110    1.000
    N70      N        0.56910    0.86270    0.13780    1.000
    N71      N        0.39790    0.72120    0.99370    1.000
    N72      N        0.58130    0.66180    0.86380    1.000
    O19      O        0.86560    0.39830    0.87810    1.000
    O20      O        0.92250    0.22800    0.03190    1.000
    O21      O        0.79900    0.18120    0.92170    1.000
    O22      O        0.71910    0.77000    0.12910    1.000
    O23      O        0.62940    0.58950    0.17150    1.000
    O24      O        0.59650    0.76120    0.00120    1.000
