# CIF file generated by openbabel 3.1.0, see https://openbabel.org
data_I
_chemical_name_common 'image0'
_cell_length_a 7.3744
_cell_length_b 7.3744
_cell_length_c 45.758
_cell_angle_alpha 90
_cell_angle_beta 90
_cell_angle_gamma 120
_space_group_name_H-M_alt 'P 1'
_space_group_name_Hall 'P 1'
loop_
    _symmetry_equiv_pos_as_xyz
    x,y,z
loop_
    _atom_site_label
    _atom_site_type_symbol
    _atom_site_fract_x
    _atom_site_fract_y
    _atom_site_fract_z
    _atom_site_occupancy
    C1       C        0.51490    0.90070    0.14277    1.000
    N1       N        0.62770    0.04110    0.12849    1.000
    C2       C        0.18157    0.23403    0.47610    1.000
    N2       N        0.29437    0.37443    0.46182    1.000
    C3       C        0.84823    0.56737    0.80944    1.000
    N3       N        0.96103    0.70777    0.79516    1.000
    C4       C        0.09930    0.61420    0.14277    1.000
    N4       N        0.95890    0.58660    0.12849    1.000
    C5       C        0.76597    0.94753    0.47610    1.000
    N5       N        0.62557    0.91993    0.46182    1.000
    C6       C        0.43263    0.28087    0.80944    1.000
    N6       N        0.29223    0.25327    0.79516    1.000
    C7       C        0.38580    0.48510    0.14277    1.000
    N7       N        0.41340    0.37230    0.12849    1.000
    C8       C        0.05247    0.81843    0.47610    1.000
    N8       N        0.08007    0.70563    0.46182    1.000
    C9       C        0.71913    0.15177    0.80944    1.000
    N9       N        0.74673    0.03897    0.79516    1.000
    C10      C        0.90070    0.51490    0.35723    1.000
    N10      N        0.04110    0.62770    0.37151    1.000
    C11      C        0.56737    0.84823    0.69056    1.000
    N11      N        0.70777    0.96103    0.70484    1.000
    C12      C        0.23403    0.18157    0.02390    1.000
    N12      N        0.37443    0.29437    0.03818    1.000
    C13      C        0.61420    0.09930    0.35723    1.000
    N13      N        0.58660    0.95890    0.37151    1.000
    C14      C        0.28087    0.43263    0.69056    1.000
    N14      N        0.25327    0.29223    0.70484    1.000
    C15      C        0.94753    0.76597    0.02390    1.000
    N15      N        0.91993    0.62557    0.03818    1.000
    C16      C        0.48510    0.38580    0.35723    1.000
    N16      N        0.37230    0.41340    0.37151    1.000
    C17      C        0.15177    0.71913    0.69056    1.000
    N17      N        0.03897    0.74673    0.70484    1.000
    C18      C        0.81843    0.05247    0.02390    1.000
    N18      N        0.70563    0.08007    0.03818    1.000
    C19      C        0.48510    0.09930    0.85723    1.000
    N19      N        0.37230    0.95890    0.87151    1.000
    C20      C        0.15177    0.43263    0.19056    1.000
    N20      N        0.03897    0.29223    0.20484    1.000
    C21      C        0.81843    0.76597    0.52390    1.000
    N21      N        0.70563    0.62557    0.53818    1.000
    C22      C        0.90070    0.38580    0.85723    1.000
    N22      N        0.04110    0.41340    0.87151    1.000
    C23      C        0.56737    0.71913    0.19056    1.000
    N23      N        0.70777    0.74673    0.20484    1.000
    C24      C        0.23403    0.05247    0.52390    1.000
    N24      N        0.37443    0.08007    0.53818    1.000
    C25      C        0.61420    0.51490    0.85723    1.000
    N25      N        0.58660    0.62770    0.87151    1.000
    C26      C        0.28087    0.84823    0.19056    1.000
    N26      N        0.25327    0.96103    0.20484    1.000
    C27      C        0.94753    0.18157    0.52390    1.000
    N27      N        0.91993    0.29437    0.53818    1.000
    C28      C        0.09930    0.48510    0.64277    1.000
    N28      N        0.95890    0.37230    0.62849    1.000
    C29      C        0.76597    0.81843    0.97610    1.000
    N29      N        0.62557    0.70563    0.96182    1.000
    C30      C        0.43263    0.15177    0.30944    1.000
    N30      N        0.29223    0.03897    0.29516    1.000
    C31      C        0.38580    0.90070    0.64277    1.000
    N31      N        0.41340    0.04110    0.62849    1.000
    C32      C        0.05247    0.23403    0.97610    1.000
    N32      N        0.08007    0.37443    0.96182    1.000
    C33      C        0.71913    0.56737    0.30944    1.000
    N33      N        0.74673    0.70777    0.29516    1.000
    C34      C        0.51490    0.61420    0.64277    1.000
    N34      N        0.62770    0.58660    0.62849    1.000
    C35      C        0.18157    0.94753    0.97610    1.000
    N35      N        0.29437    0.91993    0.96182    1.000
    C36      C        0.84823    0.28087    0.30944    1.000
    N36      N        0.96103    0.25327    0.29516    1.000
    Fe1      Fe       0.33333    0.66667    0.16667    1.000
    Fe2      Fe       0.00000    0.00000    0.50000    1.000
    Fe3      Fe       0.66667    0.33333    0.33333    1.000
    Fe4      Fe       0.33333    0.66667    0.66667    1.000
    Fe5      Fe       0.66667    0.33333    0.83333    1.000
    Fe6      Fe       0.00000    0.00000    0.00000    1.000
    Ba1      Ba       0.66667    0.33333    0.08333    1.000
    Ba2      Ba       0.00000    0.00000    0.75000    1.000
    Ba3      Ba       0.33333    0.66667    0.41667    1.000
    Ba4      Ba       0.33333    0.66667    0.91667    1.000
    Ba5      Ba       0.00000    0.00000    0.25000    1.000
    Ba6      Ba       0.66667    0.33333    0.58333    1.000
