# CIF file generated by openbabel 3.1.0, see https://openbabel.org
data_I
_chemical_name_common 'image0'
_cell_length_a 7.9105
_cell_length_b 11.128
_cell_length_c 19.441
_cell_angle_alpha 90
_cell_angle_beta 101.061
_cell_angle_gamma 90
_space_group_name_H-M_alt 'P 1'
_space_group_name_Hall 'P 1'
loop_
    _symmetry_equiv_pos_as_xyz
    x,y,z
loop_
    _atom_site_label
    _atom_site_type_symbol
    _atom_site_fract_x
    _atom_site_fract_y
    _atom_site_fract_z
    _atom_site_occupancy
    Cd1      Cd       0.85245    0.99628    0.07697    1.000
    O1       O        0.94340    0.17124    0.13962    1.000
    O2       O        0.02370    0.00053    0.19297    1.000
    O3       O        0.36330    0.10710    0.18364    1.000
    H1       H        0.43930    0.07050    0.16900    1.000
    O4       O        0.54640    0.09180    0.28457    1.000
    O5       O        0.45570    0.38465    0.46630    1.000
    O6       O        0.19150    0.41011    0.48444    1.000
    O7       O        0.90590    0.49249    0.36990    1.000
    O8       O        0.81120    0.32722    0.41170    1.000
    C1       C        0.09850    0.18180    0.25680    1.000
    C2       C        0.27610    0.18320    0.28474    1.000
    C3       C        0.33470    0.24640    0.34608    1.000
    H2       H        0.45210    0.24710    0.36480    1.000
    C4       C        0.22350    0.30880    0.38044    1.000
    C5       C        0.04690    0.30840    0.35220    1.000
    C6       C        0.98650    0.24410    0.29139    1.000
    H3       H        0.86890    0.24240    0.27330    1.000
    C7       C        0.01930    0.11160    0.19232    1.000
    C8       C        0.40860    0.12160    0.25153    1.000
    C9       C        0.29550    0.37320    0.44754    1.000
    C10      C        0.91540    0.38080    0.38145    1.000
    Cd2      Cd       0.64755    0.49628    0.42303    1.000
    O9       O        0.55660    0.67124    0.36038    1.000
    O10      O        0.47630    0.50053    0.30703    1.000
    O11      O        0.13670    0.60710    0.31636    1.000
    H4       H        0.06070    0.57050    0.33100    1.000
    O12      O        0.95360    0.59180    0.21543    1.000
    O13      O        0.04430    0.88465    0.03370    1.000
    O14      O        0.30850    0.91011    0.01556    1.000
    O15      O        0.59410    0.99249    0.13010    1.000
    O16      O        0.68880    0.82722    0.08830    1.000
    C11      C        0.40150    0.68180    0.24320    1.000
    C12      C        0.22390    0.68320    0.21526    1.000
    C13      C        0.16530    0.74640    0.15392    1.000
    H5       H        0.04790    0.74710    0.13520    1.000
    C14      C        0.27650    0.80880    0.11956    1.000
    C15      C        0.45310    0.80840    0.14780    1.000
    C16      C        0.51350    0.74410    0.20861    1.000
    H6       H        0.63110    0.74240    0.22670    1.000
    C17      C        0.48070    0.61160    0.30768    1.000
    C18      C        0.09140    0.62160    0.24847    1.000
    C19      C        0.20450    0.87320    0.05246    1.000
    C20      C        0.58460    0.88080    0.11855    1.000
    Cd3      Cd       0.14755    0.00372    0.92303    1.000
    O17      O        0.05660    0.82876    0.86038    1.000
    O18      O        0.97630    0.99947    0.80703    1.000
    O19      O        0.63670    0.89290    0.81636    1.000
    H7       H        0.56070    0.92950    0.83100    1.000
    O20      O        0.45360    0.90820    0.71543    1.000
    O21      O        0.54430    0.61535    0.53370    1.000
    O22      O        0.80850    0.58989    0.51556    1.000
    O23      O        0.09410    0.50751    0.63010    1.000
    O24      O        0.18880    0.67278    0.58830    1.000
    C21      C        0.90150    0.81820    0.74320    1.000
    C22      C        0.72390    0.81680    0.71526    1.000
    C23      C        0.66530    0.75360    0.65392    1.000
    H8       H        0.54790    0.75290    0.63520    1.000
    C24      C        0.77650    0.69120    0.61956    1.000
    C25      C        0.95310    0.69160    0.64780    1.000
    C26      C        0.01350    0.75590    0.70861    1.000
    H9       H        0.13110    0.75760    0.72670    1.000
    C27      C        0.98070    0.88840    0.80768    1.000
    C28      C        0.59140    0.87840    0.74847    1.000
    C29      C        0.70450    0.62680    0.55246    1.000
    C30      C        0.08460    0.61920    0.61855    1.000
    Cd4      Cd       0.35245    0.50372    0.57697    1.000
    O25      O        0.44340    0.32876    0.63962    1.000
    O26      O        0.52370    0.49947    0.69297    1.000
    O27      O        0.86330    0.39290    0.68364    1.000
    H10      H        0.93930    0.42950    0.66900    1.000
    O28      O        0.04640    0.40820    0.78457    1.000
    O29      O        0.95570    0.11535    0.96630    1.000
    O30      O        0.69150    0.08989    0.98444    1.000
    O31      O        0.40590    0.00751    0.86990    1.000
    O32      O        0.31120    0.17278    0.91170    1.000
    C31      C        0.59850    0.31820    0.75680    1.000
    C32      C        0.77610    0.31680    0.78474    1.000
    C33      C        0.83470    0.25360    0.84608    1.000
    H11      H        0.95210    0.25290    0.86480    1.000
    C34      C        0.72350    0.19120    0.88044    1.000
    C35      C        0.54690    0.19160    0.85220    1.000
    C36      C        0.48650    0.25590    0.79139    1.000
    H12      H        0.36890    0.25760    0.77330    1.000
    C37      C        0.51930    0.38840    0.69232    1.000
    C38      C        0.90860    0.37840    0.75153    1.000
    C39      C        0.79550    0.12680    0.94754    1.000
    C40      C        0.41540    0.11920    0.88145    1.000
