# CIF file generated by openbabel 3.1.0, see https://openbabel.org
data_I
_chemical_name_common 'image0'
_cell_length_a 12.3341
_cell_length_b 10.8263
_cell_length_c 18.2036
_cell_angle_alpha 90
_cell_angle_beta 93.488
_cell_angle_gamma 90
_space_group_name_H-M_alt 'P 1'
_space_group_name_Hall 'P 1'
loop_
    _symmetry_equiv_pos_as_xyz
    x,y,z
loop_
    _atom_site_label
    _atom_site_type_symbol
    _atom_site_fract_x
    _atom_site_fract_y
    _atom_site_fract_z
    _atom_site_occupancy
    Zn1      Zn       0.80114    0.22506    0.28207    1.000
    Zn2      Zn       0.11281    0.09754    0.71765    1.000
    O1       O        0.56530    0.38390    0.31630    1.000
    C1       C        0.13200    0.03970    0.46920    1.000
    H1       H        0.13120    0.95880    0.44910    1.000
    O2       O        0.67490    0.22860    0.35296    1.000
    C2       C        0.06230    0.12840    0.43919    1.000
    O3       O        0.42354    0.29020    0.69445    1.000
    H2       H        0.48050    0.33240    0.69280    1.000
    C3       C        0.20430    0.18170    0.56053    1.000
    O4       O        0.21486    0.22137    0.69040    1.000
    C4       C        0.20380    0.06830    0.52900    1.000
    H3       H        0.25320    0.00710    0.54800    1.000
    O5       O        0.98954    0.99470    0.34646    1.000
    O6       O        0.91120    0.17940    0.36196    1.000
    O7       O        0.85340    0.40970    0.30188    1.000
    C5       C        0.13080    0.26740    0.53380    1.000
    H4       H        0.12750    0.34560    0.55730    1.000
    C6       C        0.06040    0.24210    0.47270    1.000
    H5       H        0.01100    0.30360    0.45420    1.000
    O8       O        0.73433    0.53522    0.24058    1.000
    C7       C        0.35880    0.30310    0.62510    1.000
    H6       H        0.31760    0.38260    0.62560    1.000
    C8       C        0.27870    0.19510    0.62970    1.000
    H7       H        0.31990    0.11650    0.63920    1.000
    C9       C        0.42350    0.29900    0.55760    1.000
    C10      C        0.39420    0.37710    0.49950    1.000
    H8       H        0.33480    0.43210    0.50350    1.000
    C11      C        0.44960    0.37640    0.43610    1.000
    H9       H        0.42810    0.43070    0.39690    1.000
    C12      C        0.53590    0.29740    0.42920    1.000
    C13      C        0.56600    0.21840    0.48560    1.000
    H10      H        0.62520    0.16330    0.48100    1.000
    C14      C        0.50950    0.21880    0.55030    1.000
    H11      H        0.53050    0.16370    0.58920    1.000
    C15      C        0.82480    0.50990    0.27503    1.000
    H12      H        0.87570    0.57560    0.28060    1.000
    C16      C        0.59770    0.30060    0.36079    1.000
    C17      C        0.98130    0.09920    0.37723    1.000
    C18      C        0.38110    0.21190    0.63300    1.000
    H13      H        0.38560    0.12250    0.64650    1.000
    C19      C        0.26250    0.25590    0.62650    1.000
    H14      H        0.25760    0.34710    0.61830    1.000
    C20      C        0.44030    0.23780    0.56310    1.000
    C21      C        0.43590    0.35290    0.52920    1.000
    H15      H        0.39840    0.41910    0.55070    1.000
    C22      C        0.48620    0.37110    0.46380    1.000
    H16      H        0.48320    0.44970    0.44060    1.000
    C23      C        0.54110    0.27420    0.43240    1.000
    C24      C        0.54560    0.15920    0.46630    1.000
    H17      H        0.58310    0.09300    0.44480    1.000
    C25      C        0.49520    0.14100    0.53170    1.000
    H18      H        0.49830    0.06240    0.55490    1.000
    Zn3      Zn       0.69886    0.72506    0.21793    1.000
    Zn4      Zn       0.38719    0.59754    0.78235    1.000
    O9       O        0.93470    0.88390    0.18370    1.000
    C26      C        0.36800    0.53970    0.03080    1.000
    H19      H        0.36880    0.45880    0.05090    1.000
    O10      O        0.82510    0.72860    0.14704    1.000
    C27      C        0.43770    0.62840    0.06081    1.000
    O11      O        0.07646    0.79020    0.80555    1.000
    H20      H        0.01950    0.83240    0.80720    1.000
    C28      C        0.29570    0.68170    0.93947    1.000
    O12      O        0.28514    0.72137    0.80960    1.000
    C29      C        0.29620    0.56830    0.97100    1.000
    H21      H        0.24680    0.50710    0.95200    1.000
    O13      O        0.51046    0.49470    0.15354    1.000
    O14      O        0.58880    0.67940    0.13804    1.000
    O15      O        0.64660    0.90970    0.19812    1.000
    C30      C        0.36920    0.76740    0.96620    1.000
    H22      H        0.37250    0.84560    0.94270    1.000
    C31      C        0.43960    0.74210    0.02730    1.000
    H23      H        0.48900    0.80360    0.04580    1.000
    O16      O        0.76567    0.03522    0.25942    1.000
    C32      C        0.14120    0.80310    0.87490    1.000
    H24      H        0.18240    0.88260    0.87440    1.000
    C33      C        0.22130    0.69510    0.87030    1.000
    H25      H        0.18010    0.61650    0.86080    1.000
    C34      C        0.07650    0.79900    0.94240    1.000
    C35      C        0.10580    0.87710    0.00050    1.000
    H26      H        0.16520    0.93210    0.99650    1.000
    C36      C        0.05040    0.87640    0.06390    1.000
    H27      H        0.07190    0.93070    0.10310    1.000
    C37      C        0.96410    0.79740    0.07080    1.000
    C38      C        0.93400    0.71840    0.01440    1.000
    H28      H        0.87480    0.66330    0.01900    1.000
    C39      C        0.99050    0.71880    0.94970    1.000
    H29      H        0.96950    0.66370    0.91080    1.000
    C40      C        0.67520    0.00990    0.22497    1.000
    H30      H        0.62430    0.07560    0.21940    1.000
    C41      C        0.90230    0.80060    0.13921    1.000
    C42      C        0.51870    0.59920    0.12277    1.000
    C43      C        0.11890    0.71190    0.86700    1.000
    H31      H        0.11440    0.62250    0.85350    1.000
    C44      C        0.23750    0.75590    0.87350    1.000
    H32      H        0.24240    0.84710    0.88170    1.000
    C45      C        0.05970    0.73780    0.93690    1.000
    C46      C        0.06410    0.85290    0.97080    1.000
    H33      H        0.10160    0.91910    0.94930    1.000
    C47      C        0.01380    0.87110    0.03620    1.000
    H34      H        0.01680    0.94970    0.05940    1.000
    C48      C        0.95890    0.77420    0.06760    1.000
    C49      C        0.95440    0.65920    0.03370    1.000
    H35      H        0.91690    0.59300    0.05520    1.000
    C50      C        0.00480    0.64100    0.96830    1.000
    H36      H        0.00170    0.56240    0.94510    1.000
    Zn5      Zn       0.19886    0.77494    0.71793    1.000
    Zn6      Zn       0.88719    0.90246    0.28235    1.000
    O17      O        0.43470    0.61610    0.68370    1.000
    C51      C        0.86800    0.96030    0.53080    1.000
    H37      H        0.86880    0.04120    0.55090    1.000
    O18      O        0.32510    0.77140    0.64704    1.000
    C52      C        0.93770    0.87160    0.56081    1.000
    O19      O        0.57646    0.70980    0.30555    1.000
    H38      H        0.51950    0.66760    0.30720    1.000
    C53      C        0.79570    0.81830    0.43947    1.000
    O20      O        0.78514    0.77863    0.30960    1.000
    C54      C        0.79620    0.93170    0.47100    1.000
    H39      H        0.74680    0.99290    0.45200    1.000
    O21      O        0.01046    0.00530    0.65354    1.000
    O22      O        0.08880    0.82060    0.63804    1.000
    O23      O        0.14660    0.59030    0.69812    1.000
    C55      C        0.86920    0.73260    0.46620    1.000
    H40      H        0.87250    0.65440    0.44270    1.000
    C56      C        0.93960    0.75790    0.52730    1.000
    H41      H        0.98900    0.69640    0.54580    1.000
    O24      O        0.26567    0.46478    0.75942    1.000
    C57      C        0.64120    0.69690    0.37490    1.000
    H42      H        0.68240    0.61740    0.37440    1.000
    C58      C        0.72130    0.80490    0.37030    1.000
    H43      H        0.68010    0.88350    0.36080    1.000
    C59      C        0.57650    0.70100    0.44240    1.000
    C60      C        0.60580    0.62290    0.50050    1.000
    H44      H        0.66520    0.56790    0.49650    1.000
    C61      C        0.55040    0.62360    0.56390    1.000
    H45      H        0.57190    0.56930    0.60310    1.000
    C62      C        0.46410    0.70260    0.57080    1.000
    C63      C        0.43400    0.78160    0.51440    1.000
    H46      H        0.37480    0.83670    0.51900    1.000
    C64      C        0.49050    0.78120    0.44970    1.000
    H47      H        0.46950    0.83630    0.41080    1.000
    C65      C        0.17520    0.49010    0.72497    1.000
    H48      H        0.12430    0.42440    0.71940    1.000
    C66      C        0.40230    0.69940    0.63921    1.000
    C67      C        0.01870    0.90080    0.62277    1.000
    C68      C        0.61890    0.78810    0.36700    1.000
    H49      H        0.61440    0.87750    0.35350    1.000
    C69      C        0.73750    0.74410    0.37350    1.000
    H50      H        0.74240    0.65290    0.38170    1.000
    C70      C        0.55970    0.76220    0.43690    1.000
    C71      C        0.56410    0.64710    0.47080    1.000
    H51      H        0.60160    0.58090    0.44930    1.000
    C72      C        0.51380    0.62890    0.53620    1.000
    H52      H        0.51680    0.55030    0.55940    1.000
    C73      C        0.45890    0.72580    0.56760    1.000
    C74      C        0.45440    0.84080    0.53370    1.000
    H53      H        0.41690    0.90700    0.55520    1.000
    C75      C        0.50480    0.85900    0.46830    1.000
    H54      H        0.50170    0.93760    0.44510    1.000
    Zn7      Zn       0.30114    0.27494    0.78207    1.000
    Zn8      Zn       0.61281    0.40246    0.21765    1.000
    O25      O        0.06530    0.11610    0.81630    1.000
    C76      C        0.63200    0.46030    0.96920    1.000
    H55      H        0.63120    0.54120    0.94910    1.000
    O26      O        0.17490    0.27140    0.85296    1.000
    C77      C        0.56230    0.37160    0.93919    1.000
    O27      O        0.92354    0.20980    0.19445    1.000
    H56      H        0.98050    0.16760    0.19280    1.000
    C78      C        0.70430    0.31830    0.06053    1.000
    O28      O        0.71486    0.27863    0.19040    1.000
    C79      C        0.70380    0.43170    0.02900    1.000
    H57      H        0.75320    0.49290    0.04800    1.000
    O29      O        0.48954    0.50530    0.84646    1.000
    O30      O        0.41120    0.32060    0.86196    1.000
    O31      O        0.35340    0.09030    0.80188    1.000
    C80      C        0.63080    0.23260    0.03380    1.000
    H58      H        0.62750    0.15440    0.05730    1.000
    C81      C        0.56040    0.25790    0.97270    1.000
    H59      H        0.51100    0.19640    0.95420    1.000
    O32      O        0.23433    0.96478    0.74058    1.000
    C82      C        0.85880    0.19690    0.12510    1.000
    H60      H        0.81760    0.11740    0.12560    1.000
    C83      C        0.77870    0.30490    0.12970    1.000
    H61      H        0.81990    0.38350    0.13920    1.000
    C84      C        0.92350    0.20100    0.05760    1.000
    C85      C        0.89420    0.12290    0.99950    1.000
    H62      H        0.83480    0.06790    0.00350    1.000
    C86      C        0.94960    0.12360    0.93610    1.000
    H63      H        0.92810    0.06930    0.89690    1.000
    C87      C        0.03590    0.20260    0.92920    1.000
    C88      C        0.06600    0.28160    0.98560    1.000
    H64      H        0.12520    0.33670    0.98100    1.000
    C89      C        0.00950    0.28120    0.05030    1.000
    H65      H        0.03050    0.33630    0.08920    1.000
    C90      C        0.32480    0.99010    0.77503    1.000
    H66      H        0.37570    0.92440    0.78060    1.000
    C91      C        0.09770    0.19940    0.86079    1.000
    C92      C        0.48130    0.40080    0.87723    1.000
    C93      C        0.88110    0.28810    0.13300    1.000
    H67      H        0.88560    0.37750    0.14650    1.000
    C94      C        0.76250    0.24410    0.12650    1.000
    H68      H        0.75760    0.15290    0.11830    1.000
    C95      C        0.94030    0.26220    0.06310    1.000
    C96      C        0.93590    0.14710    0.02920    1.000
    H69      H        0.89840    0.08090    0.05070    1.000
    C97      C        0.98620    0.12890    0.96380    1.000
    H70      H        0.98320    0.05030    0.94060    1.000
    C98      C        0.04110    0.22580    0.93240    1.000
    C99      C        0.04560    0.34080    0.96630    1.000
    H71      H        0.08310    0.40700    0.94480    1.000
    C100     C        0.99520    0.35900    0.03170    1.000
    H72      H        0.99830    0.43760    0.05490    1.000
