# CIF file generated by openbabel 3.1.0, see https://openbabel.org
data_I
_chemical_name_common 'image0'
_cell_length_a 18.99
_cell_length_b 34.418
_cell_length_c 38.393
_cell_angle_alpha 90
_cell_angle_beta 90
_cell_angle_gamma 90
_space_group_name_H-M_alt 'P 1'
_space_group_name_Hall 'P 1'
loop_
    _symmetry_equiv_pos_as_xyz
    x,y,z
loop_
    _atom_site_label
    _atom_site_type_symbol
    _atom_site_fract_x
    _atom_site_fract_y
    _atom_site_fract_z
    _atom_site_occupancy
    H1       H        0.29500    0.27720    0.87130    1.000
    C1       C        0.35450    0.16071    0.83473    1.000
    C2       C        0.25940    0.07820    0.83661    1.000
    C3       C        0.37770    0.11908    0.83006    1.000
    C4       C        0.33590    0.08385    0.83073    1.000
    C5       C        0.38200    0.05381    0.82458    1.000
    C6       C        0.44590    0.10936    0.82335    1.000
    C7       C        0.51200    0.13280    0.81898    1.000
    H2       H        0.50170    0.15980    0.82260    1.000
    H3       H        0.53020    0.12920    0.79590    1.000
    H4       H        0.54640    0.12450    0.83570    1.000
    C8       C        0.37140    0.01080    0.82340    1.000
    H5       H        0.41520    0.99830    0.81800    1.000
    H6       H        0.33720    0.00450    0.80590    1.000
    H7       H        0.35490    0.00190    0.84570    1.000
    C9       C        0.50850    0.04821    0.80688    1.000
    C10      C        0.51020    0.03591    0.77279    1.000
    H8       H        0.47090    0.03920    0.75870    1.000
    C11      C        0.57040    0.01870    0.75945    1.000
    C12      C        0.63070    0.01429    0.78003    1.000
    H9       H        0.67190    0.00420    0.77060    1.000
    C13      C        0.62780    0.02540    0.81516    1.000
    C14      C        0.56750    0.04269    0.82844    1.000
    H10      H        0.56610    0.05060    0.85160    1.000
    C15      C        0.69160    0.01925    0.83818    1.000
    C16      C        0.57370    0.00681    0.72166    1.000
    Cu1      Cu       0.40952    0.24751    0.84067    1.000
    Cu2      Cu       0.23940    0.22641    0.83817    1.000
    N1       N        0.44800    0.06920    0.81952    1.000
    O1       O        0.31390    0.25644    0.86008    1.000
    O2       O        0.40100    0.18622    0.83500    1.000
    O3       O        0.28820    0.16779    0.83662    1.000
    O4       O        0.21910    0.10771    0.84132    1.000
    O5       O        0.23360    0.04533    0.83725    1.000
    O6       O        0.68510    0.03046    0.86884    1.000
    O7       O        0.74380    0.00299    0.82434    1.000
    O8       O        0.63220    0.00924    0.70733    1.000
    O9       O        0.51610    0.99563    0.70846    1.000
    H11      H        0.24700    0.12720    0.84580    1.000
    H12      H        0.29500    0.77720    0.37130    1.000
    C17      C        0.35450    0.66071    0.33473    1.000
    C18      C        0.25940    0.57820    0.33661    1.000
    C19      C        0.37770    0.61908    0.33006    1.000
    C20      C        0.33590    0.58385    0.33073    1.000
    C21      C        0.38200    0.55381    0.32458    1.000
    C22      C        0.44590    0.60936    0.32335    1.000
    C23      C        0.51200    0.63280    0.31898    1.000
    H13      H        0.50170    0.65980    0.32260    1.000
    H14      H        0.53020    0.62920    0.29590    1.000
    H15      H        0.54640    0.62450    0.33570    1.000
    C24      C        0.37140    0.51080    0.32340    1.000
    H16      H        0.41520    0.49830    0.31800    1.000
    H17      H        0.33720    0.50450    0.30590    1.000
    H18      H        0.35490    0.50190    0.34570    1.000
    C25      C        0.50850    0.54821    0.30688    1.000
    C26      C        0.51020    0.53591    0.27279    1.000
    H19      H        0.47090    0.53920    0.25870    1.000
    C27      C        0.57040    0.51870    0.25945    1.000
    C28      C        0.63070    0.51429    0.28003    1.000
    H20      H        0.67190    0.50420    0.27060    1.000
    C29      C        0.62780    0.52540    0.31516    1.000
    C30      C        0.56750    0.54269    0.32844    1.000
    H21      H        0.56610    0.55060    0.35160    1.000
    C31      C        0.69160    0.51925    0.33818    1.000
    C32      C        0.57370    0.50681    0.22166    1.000
    Cu3      Cu       0.40952    0.74751    0.34067    1.000
    Cu4      Cu       0.23940    0.72641    0.33817    1.000
    N2       N        0.44800    0.56920    0.31952    1.000
    O10      O        0.31390    0.75644    0.36008    1.000
    O11      O        0.40100    0.68622    0.33500    1.000
    O12      O        0.28820    0.66779    0.33662    1.000
    O13      O        0.21910    0.60771    0.34132    1.000
    O14      O        0.23360    0.54533    0.33725    1.000
    O15      O        0.68510    0.53046    0.36884    1.000
    O16      O        0.74380    0.50299    0.32434    1.000
    O17      O        0.63220    0.50924    0.20733    1.000
    O18      O        0.51610    0.49563    0.20846    1.000
    H22      H        0.24700    0.62720    0.34580    1.000
    H23      H        0.79500    0.27720    0.37130    1.000
    C33      C        0.85450    0.16071    0.33473    1.000
    C34      C        0.75940    0.07820    0.33661    1.000
    C35      C        0.87770    0.11908    0.33006    1.000
    C36      C        0.83590    0.08385    0.33073    1.000
    C37      C        0.88200    0.05381    0.32458    1.000
    C38      C        0.94590    0.10936    0.32335    1.000
    C39      C        0.01200    0.13280    0.31898    1.000
    H24      H        0.00170    0.15980    0.32260    1.000
    H25      H        0.03020    0.12920    0.29590    1.000
    H26      H        0.04640    0.12450    0.33570    1.000
    C40      C        0.87140    0.01080    0.32340    1.000
    H27      H        0.91520    0.99830    0.31800    1.000
    H28      H        0.83720    0.00450    0.30590    1.000
    H29      H        0.85490    0.00190    0.34570    1.000
    C41      C        0.00850    0.04821    0.30688    1.000
    C42      C        0.01020    0.03591    0.27279    1.000
    H30      H        0.97090    0.03920    0.25870    1.000
    C43      C        0.07040    0.01870    0.25945    1.000
    C44      C        0.13070    0.01429    0.28003    1.000
    H31      H        0.17190    0.00420    0.27060    1.000
    C45      C        0.12780    0.02540    0.31516    1.000
    C46      C        0.06750    0.04269    0.32844    1.000
    H32      H        0.06610    0.05060    0.35160    1.000
    C47      C        0.19160    0.01925    0.33818    1.000
    C48      C        0.07370    0.00681    0.22166    1.000
    Cu5      Cu       0.90952    0.24751    0.34067    1.000
    Cu6      Cu       0.73940    0.22641    0.33817    1.000
    N3       N        0.94800    0.06920    0.31952    1.000
    O19      O        0.81390    0.25644    0.36008    1.000
    O20      O        0.90100    0.18622    0.33500    1.000
    O21      O        0.78820    0.16779    0.33662    1.000
    O22      O        0.71910    0.10771    0.34132    1.000
    O23      O        0.73360    0.04533    0.33725    1.000
    O24      O        0.18510    0.03046    0.36884    1.000
    O25      O        0.24380    0.00299    0.32434    1.000
    O26      O        0.13220    0.00924    0.20733    1.000
    O27      O        0.01610    0.99563    0.20846    1.000
    H33      H        0.74700    0.12720    0.34580    1.000
    H34      H        0.79500    0.77720    0.87130    1.000
    C49      C        0.85450    0.66071    0.83473    1.000
    C50      C        0.75940    0.57820    0.83661    1.000
    C51      C        0.87770    0.61908    0.83006    1.000
    C52      C        0.83590    0.58385    0.83073    1.000
    C53      C        0.88200    0.55381    0.82458    1.000
    C54      C        0.94590    0.60936    0.82335    1.000
    C55      C        0.01200    0.63280    0.81898    1.000
    H35      H        0.00170    0.65980    0.82260    1.000
    H36      H        0.03020    0.62920    0.79590    1.000
    H37      H        0.04640    0.62450    0.83570    1.000
    C56      C        0.87140    0.51080    0.82340    1.000
    H38      H        0.91520    0.49830    0.81800    1.000
    H39      H        0.83720    0.50450    0.80590    1.000
    H40      H        0.85490    0.50190    0.84570    1.000
    C57      C        0.00850    0.54821    0.80688    1.000
    C58      C        0.01020    0.53591    0.77279    1.000
    H41      H        0.97090    0.53920    0.75870    1.000
    C59      C        0.07040    0.51870    0.75945    1.000
    C60      C        0.13070    0.51429    0.78003    1.000
    H42      H        0.17190    0.50420    0.77060    1.000
    C61      C        0.12780    0.52540    0.81516    1.000
    C62      C        0.06750    0.54269    0.82844    1.000
    H43      H        0.06610    0.55060    0.85160    1.000
    C63      C        0.19160    0.51925    0.83818    1.000
    C64      C        0.07370    0.50681    0.72166    1.000
    Cu7      Cu       0.90952    0.74751    0.84067    1.000
    Cu8      Cu       0.73940    0.72641    0.83817    1.000
    N4       N        0.94800    0.56920    0.81952    1.000
    O28      O        0.81390    0.75644    0.86008    1.000
    O29      O        0.90100    0.68622    0.83500    1.000
    O30      O        0.78820    0.66779    0.83662    1.000
    O31      O        0.71910    0.60771    0.84132    1.000
    O32      O        0.73360    0.54533    0.83725    1.000
    O33      O        0.18510    0.53046    0.86884    1.000
    O34      O        0.24380    0.50299    0.82434    1.000
    O35      O        0.13220    0.50924    0.70733    1.000
    O36      O        0.01610    0.49563    0.70846    1.000
    H44      H        0.74700    0.62720    0.84580    1.000
    H45      H        0.45500    0.47280    0.87130    1.000
    C65      C        0.39550    0.58929    0.83473    1.000
    C66      C        0.49060    0.67180    0.83661    1.000
    C67      C        0.37230    0.63092    0.83006    1.000
    C68      C        0.41410    0.66615    0.83073    1.000
    C69      C        0.36800    0.69619    0.82458    1.000
    C70      C        0.30410    0.64064    0.82335    1.000
    C71      C        0.23800    0.61720    0.81898    1.000
    H46      H        0.24830    0.59020    0.82260    1.000
    H47      H        0.21980    0.62080    0.79590    1.000
    H48      H        0.20360    0.62550    0.83570    1.000
    C72      C        0.37860    0.73920    0.82340    1.000
    H49      H        0.33480    0.75170    0.81800    1.000
    H50      H        0.41280    0.74550    0.80590    1.000
    H51      H        0.39510    0.74810    0.84570    1.000
    C73      C        0.24150    0.70179    0.80688    1.000
    C74      C        0.23980    0.71409    0.77279    1.000
    H52      H        0.27910    0.71080    0.75870    1.000
    C75      C        0.17960    0.73130    0.75945    1.000
    C76      C        0.11930    0.73571    0.78003    1.000
    H53      H        0.07810    0.74580    0.77060    1.000
    C77      C        0.12220    0.72460    0.81516    1.000
    C78      C        0.18250    0.70731    0.82844    1.000
    H54      H        0.18390    0.69940    0.85160    1.000
    C79      C        0.05840    0.73075    0.83818    1.000
    C80      C        0.17630    0.74319    0.72166    1.000
    Cu9      Cu       0.34048    0.50249    0.84067    1.000
    Cu10     Cu       0.51060    0.52359    0.83817    1.000
    N5       N        0.30200    0.68080    0.81952    1.000
    O37      O        0.43610    0.49356    0.86008    1.000
    O38      O        0.34900    0.56378    0.83500    1.000
    O39      O        0.46180    0.58221    0.83662    1.000
    O40      O        0.53090    0.64229    0.84132    1.000
    O41      O        0.51640    0.70467    0.83725    1.000
    O42      O        0.06490    0.71954    0.86884    1.000
    O43      O        0.00620    0.74701    0.82434    1.000
    O44      O        0.11780    0.74076    0.70733    1.000
    O45      O        0.23390    0.75437    0.70846    1.000
    H55      H        0.50300    0.62280    0.84580    1.000
    H56      H        0.45500    0.97280    0.37130    1.000
    C81      C        0.39550    0.08929    0.33473    1.000
    C82      C        0.49060    0.17180    0.33661    1.000
    C83      C        0.37230    0.13092    0.33006    1.000
    C84      C        0.41410    0.16615    0.33073    1.000
    C85      C        0.36800    0.19619    0.32458    1.000
    C86      C        0.30410    0.14064    0.32335    1.000
    C87      C        0.23800    0.11720    0.31898    1.000
    H57      H        0.24830    0.09020    0.32260    1.000
    H58      H        0.21980    0.12080    0.29590    1.000
    H59      H        0.20360    0.12550    0.33570    1.000
    C88      C        0.37860    0.23920    0.32340    1.000
    H60      H        0.33480    0.25170    0.31800    1.000
    H61      H        0.41280    0.24550    0.30590    1.000
    H62      H        0.39510    0.24810    0.34570    1.000
    C89      C        0.24150    0.20179    0.30688    1.000
    C90      C        0.23980    0.21409    0.27279    1.000
    H63      H        0.27910    0.21080    0.25870    1.000
    C91      C        0.17960    0.23130    0.25945    1.000
    C92      C        0.11930    0.23571    0.28003    1.000
    H64      H        0.07810    0.24580    0.27060    1.000
    C93      C        0.12220    0.22460    0.31516    1.000
    C94      C        0.18250    0.20731    0.32844    1.000
    H65      H        0.18390    0.19940    0.35160    1.000
    C95      C        0.05840    0.23075    0.33818    1.000
    C96      C        0.17630    0.24319    0.22166    1.000
    Cu11     Cu       0.34048    0.00249    0.34067    1.000
    Cu12     Cu       0.51060    0.02359    0.33817    1.000
    N6       N        0.30200    0.18080    0.31952    1.000
    O46      O        0.43610    0.99356    0.36008    1.000
    O47      O        0.34900    0.06378    0.33500    1.000
    O48      O        0.46180    0.08221    0.33662    1.000
    O49      O        0.53090    0.14229    0.34132    1.000
    O50      O        0.51640    0.20467    0.33725    1.000
    O51      O        0.06490    0.21954    0.36884    1.000
    O52      O        0.00620    0.24701    0.32434    1.000
    O53      O        0.11780    0.24076    0.20733    1.000
    O54      O        0.23390    0.25437    0.20846    1.000
    H66      H        0.50300    0.12280    0.34580    1.000
    H67      H        0.95500    0.47280    0.37130    1.000
    C97      C        0.89550    0.58929    0.33473    1.000
    C98      C        0.99060    0.67180    0.33661    1.000
    C99      C        0.87230    0.63092    0.33006    1.000
    C100     C        0.91410    0.66615    0.33073    1.000
    C101     C        0.86800    0.69619    0.32458    1.000
    C102     C        0.80410    0.64064    0.32335    1.000
    C103     C        0.73800    0.61720    0.31898    1.000
    H68      H        0.74830    0.59020    0.32260    1.000
    H69      H        0.71980    0.62080    0.29590    1.000
    H70      H        0.70360    0.62550    0.33570    1.000
    C104     C        0.87860    0.73920    0.32340    1.000
    H71      H        0.83480    0.75170    0.31800    1.000
    H72      H        0.91280    0.74550    0.30590    1.000
    H73      H        0.89510    0.74810    0.34570    1.000
    C105     C        0.74150    0.70179    0.30688    1.000
    C106     C        0.73980    0.71409    0.27279    1.000
    H74      H        0.77910    0.71080    0.25870    1.000
    C107     C        0.67960    0.73130    0.25945    1.000
    C108     C        0.61930    0.73571    0.28003    1.000
    H75      H        0.57810    0.74580    0.27060    1.000
    C109     C        0.62220    0.72460    0.31516    1.000
    C110     C        0.68250    0.70731    0.32844    1.000
    H76      H        0.68390    0.69940    0.35160    1.000
    C111     C        0.55840    0.73075    0.33818    1.000
    C112     C        0.67630    0.74319    0.22166    1.000
    Cu13     Cu       0.84048    0.50249    0.34067    1.000
    Cu14     Cu       0.01060    0.52359    0.33817    1.000
    N7       N        0.80200    0.68080    0.31952    1.000
    O55      O        0.93610    0.49356    0.36008    1.000
    O56      O        0.84900    0.56378    0.33500    1.000
    O57      O        0.96180    0.58221    0.33662    1.000
    O58      O        0.03090    0.64229    0.34132    1.000
    O59      O        0.01640    0.70467    0.33725    1.000
    O60      O        0.56490    0.71954    0.36884    1.000
    O61      O        0.50620    0.74701    0.32434    1.000
    O62      O        0.61780    0.74076    0.20733    1.000
    O63      O        0.73390    0.75437    0.20846    1.000
    H77      H        0.00300    0.62280    0.34580    1.000
    H78      H        0.95500    0.97280    0.87130    1.000
    C113     C        0.89550    0.08929    0.83473    1.000
    C114     C        0.99060    0.17180    0.83661    1.000
    C115     C        0.87230    0.13092    0.83006    1.000
    C116     C        0.91410    0.16615    0.83073    1.000
    C117     C        0.86800    0.19619    0.82458    1.000
    C118     C        0.80410    0.14064    0.82335    1.000
    C119     C        0.73800    0.11720    0.81898    1.000
    H79      H        0.74830    0.09020    0.82260    1.000
    H80      H        0.71980    0.12080    0.79590    1.000
    H81      H        0.70360    0.12550    0.83570    1.000
    C120     C        0.87860    0.23920    0.82340    1.000
    H82      H        0.83480    0.25170    0.81800    1.000
    H83      H        0.91280    0.24550    0.80590    1.000
    H84      H        0.89510    0.24810    0.84570    1.000
    C121     C        0.74150    0.20179    0.80688    1.000
    C122     C        0.73980    0.21409    0.77279    1.000
    H85      H        0.77910    0.21080    0.75870    1.000
    C123     C        0.67960    0.23130    0.75945    1.000
    C124     C        0.61930    0.23571    0.78003    1.000
    H86      H        0.57810    0.24580    0.77060    1.000
    C125     C        0.62220    0.22460    0.81516    1.000
    C126     C        0.68250    0.20731    0.82844    1.000
    H87      H        0.68390    0.19940    0.85160    1.000
    C127     C        0.55840    0.23075    0.83818    1.000
    C128     C        0.67630    0.24319    0.72166    1.000
    Cu15     Cu       0.84048    0.00249    0.84067    1.000
    Cu16     Cu       0.01060    0.02359    0.83817    1.000
    N8       N        0.80200    0.18080    0.81952    1.000
    O64      O        0.93610    0.99356    0.86008    1.000
    O65      O        0.84900    0.06378    0.83500    1.000
    O66      O        0.96180    0.08221    0.83662    1.000
    O67      O        0.03090    0.14229    0.84132    1.000
    O68      O        0.01640    0.20467    0.83725    1.000
    O69      O        0.56490    0.21954    0.86884    1.000
    O70      O        0.50620    0.24701    0.82434    1.000
    O71      O        0.61780    0.24076    0.70733    1.000
    O72      O        0.73390    0.25437    0.70846    1.000
    H88      H        0.00300    0.12280    0.84580    1.000
    H89      H        0.45500    0.27720    0.87870    1.000
    C129     C        0.39550    0.16071    0.91527    1.000
    C130     C        0.49060    0.07820    0.91339    1.000
    C131     C        0.37230    0.11908    0.91994    1.000
    C132     C        0.41410    0.08385    0.91927    1.000
    C133     C        0.36800    0.05381    0.92542    1.000
    C134     C        0.30410    0.10936    0.92665    1.000
    C135     C        0.23800    0.13280    0.93102    1.000
    H90      H        0.24830    0.15980    0.92740    1.000
    H91      H        0.21980    0.12920    0.95410    1.000
    H92      H        0.20360    0.12450    0.91430    1.000
    C136     C        0.37860    0.01080    0.92660    1.000
    H93      H        0.33480    0.99830    0.93200    1.000
    H94      H        0.41280    0.00450    0.94410    1.000
    H95      H        0.39510    0.00190    0.90430    1.000
    C137     C        0.24150    0.04821    0.94312    1.000
    C138     C        0.23980    0.03591    0.97721    1.000
    H96      H        0.27910    0.03920    0.99130    1.000
    C139     C        0.17960    0.01870    0.99055    1.000
    C140     C        0.11930    0.01429    0.96997    1.000
    H97      H        0.07810    0.00420    0.97940    1.000
    C141     C        0.12220    0.02540    0.93484    1.000
    C142     C        0.18250    0.04269    0.92156    1.000
    H98      H        0.18390    0.05060    0.89840    1.000
    C143     C        0.05840    0.01925    0.91182    1.000
    C144     C        0.17630    0.00681    0.02834    1.000
    Cu17     Cu       0.34048    0.24751    0.90933    1.000
    Cu18     Cu       0.51060    0.22641    0.91183    1.000
    N9       N        0.30200    0.06920    0.93048    1.000
    O73      O        0.43610    0.25644    0.88992    1.000
    O74      O        0.34900    0.18622    0.91500    1.000
    O75      O        0.46180    0.16779    0.91338    1.000
    O76      O        0.53090    0.10771    0.90868    1.000
    O77      O        0.51640    0.04533    0.91275    1.000
    O78      O        0.06490    0.03046    0.88116    1.000
    O79      O        0.00620    0.00299    0.92566    1.000
    O80      O        0.11780    0.00924    0.04267    1.000
    O81      O        0.23390    0.99563    0.04154    1.000
    H99      H        0.50300    0.12720    0.90420    1.000
    H100     H        0.45500    0.77720    0.37870    1.000
    C145     C        0.39550    0.66071    0.41527    1.000
    C146     C        0.49060    0.57820    0.41339    1.000
    C147     C        0.37230    0.61908    0.41994    1.000
    C148     C        0.41410    0.58385    0.41927    1.000
    C149     C        0.36800    0.55381    0.42542    1.000
    C150     C        0.30410    0.60936    0.42665    1.000
    C151     C        0.23800    0.63280    0.43102    1.000
    H101     H        0.24830    0.65980    0.42740    1.000
    H102     H        0.21980    0.62920    0.45410    1.000
    H103     H        0.20360    0.62450    0.41430    1.000
    C152     C        0.37860    0.51080    0.42660    1.000
    H104     H        0.33480    0.49830    0.43200    1.000
    H105     H        0.41280    0.50450    0.44410    1.000
    H106     H        0.39510    0.50190    0.40430    1.000
    C153     C        0.24150    0.54821    0.44312    1.000
    C154     C        0.23980    0.53591    0.47721    1.000
    H107     H        0.27910    0.53920    0.49130    1.000
    C155     C        0.17960    0.51870    0.49055    1.000
    C156     C        0.11930    0.51429    0.46997    1.000
    H108     H        0.07810    0.50420    0.47940    1.000
    C157     C        0.12220    0.52540    0.43484    1.000
    C158     C        0.18250    0.54269    0.42156    1.000
    H109     H        0.18390    0.55060    0.39840    1.000
    C159     C        0.05840    0.51925    0.41182    1.000
    C160     C        0.17630    0.50681    0.52834    1.000
    Cu19     Cu       0.34048    0.74751    0.40933    1.000
    Cu20     Cu       0.51060    0.72641    0.41183    1.000
    N10      N        0.30200    0.56920    0.43048    1.000
    O82      O        0.43610    0.75644    0.38992    1.000
    O83      O        0.34900    0.68622    0.41500    1.000
    O84      O        0.46180    0.66779    0.41338    1.000
    O85      O        0.53090    0.60771    0.40868    1.000
    O86      O        0.51640    0.54533    0.41275    1.000
    O87      O        0.06490    0.53046    0.38116    1.000
    O88      O        0.00620    0.50299    0.42566    1.000
    O89      O        0.11780    0.50924    0.54267    1.000
    O90      O        0.23390    0.49563    0.54154    1.000
    H110     H        0.50300    0.62720    0.40420    1.000
    H111     H        0.95500    0.27720    0.37870    1.000
    C161     C        0.89550    0.16071    0.41527    1.000
    C162     C        0.99060    0.07820    0.41339    1.000
    C163     C        0.87230    0.11908    0.41994    1.000
    C164     C        0.91410    0.08385    0.41927    1.000
    C165     C        0.86800    0.05381    0.42542    1.000
    C166     C        0.80410    0.10936    0.42665    1.000
    C167     C        0.73800    0.13280    0.43102    1.000
    H112     H        0.74830    0.15980    0.42740    1.000
    H113     H        0.71980    0.12920    0.45410    1.000
    H114     H        0.70360    0.12450    0.41430    1.000
    C168     C        0.87860    0.01080    0.42660    1.000
    H115     H        0.83480    0.99830    0.43200    1.000
    H116     H        0.91280    0.00450    0.44410    1.000
    H117     H        0.89510    0.00190    0.40430    1.000
    C169     C        0.74150    0.04821    0.44312    1.000
    C170     C        0.73980    0.03591    0.47721    1.000
    H118     H        0.77910    0.03920    0.49130    1.000
    C171     C        0.67960    0.01870    0.49055    1.000
    C172     C        0.61930    0.01429    0.46997    1.000
    H119     H        0.57810    0.00420    0.47940    1.000
    C173     C        0.62220    0.02540    0.43484    1.000
    C174     C        0.68250    0.04269    0.42156    1.000
    H120     H        0.68390    0.05060    0.39840    1.000
    C175     C        0.55840    0.01925    0.41182    1.000
    C176     C        0.67630    0.00681    0.52834    1.000
    Cu21     Cu       0.84048    0.24751    0.40933    1.000
    Cu22     Cu       0.01060    0.22641    0.41183    1.000
    N11      N        0.80200    0.06920    0.43048    1.000
    O91      O        0.93610    0.25644    0.38992    1.000
    O92      O        0.84900    0.18622    0.41500    1.000
    O93      O        0.96180    0.16779    0.41338    1.000
    O94      O        0.03090    0.10771    0.40868    1.000
    O95      O        0.01640    0.04533    0.41275    1.000
    O96      O        0.56490    0.03046    0.38116    1.000
    O97      O        0.50620    0.00299    0.42566    1.000
    O98      O        0.61780    0.00924    0.54267    1.000
    O99      O        0.73390    0.99563    0.54154    1.000
    H121     H        0.00300    0.12720    0.40420    1.000
    H122     H        0.95500    0.77720    0.87870    1.000
    C177     C        0.89550    0.66071    0.91527    1.000
    C178     C        0.99060    0.57820    0.91339    1.000
    C179     C        0.87230    0.61908    0.91994    1.000
    C180     C        0.91410    0.58385    0.91927    1.000
    C181     C        0.86800    0.55381    0.92542    1.000
    C182     C        0.80410    0.60936    0.92665    1.000
    C183     C        0.73800    0.63280    0.93102    1.000
    H123     H        0.74830    0.65980    0.92740    1.000
    H124     H        0.71980    0.62920    0.95410    1.000
    H125     H        0.70360    0.62450    0.91430    1.000
    C184     C        0.87860    0.51080    0.92660    1.000
    H126     H        0.83480    0.49830    0.93200    1.000
    H127     H        0.91280    0.50450    0.94410    1.000
    H128     H        0.89510    0.50190    0.90430    1.000
    C185     C        0.74150    0.54821    0.94312    1.000
    C186     C        0.73980    0.53591    0.97721    1.000
    H129     H        0.77910    0.53920    0.99130    1.000
    C187     C        0.67960    0.51870    0.99055    1.000
    C188     C        0.61930    0.51429    0.96997    1.000
    H130     H        0.57810    0.50420    0.97940    1.000
    C189     C        0.62220    0.52540    0.93484    1.000
    C190     C        0.68250    0.54269    0.92156    1.000
    H131     H        0.68390    0.55060    0.89840    1.000
    C191     C        0.55840    0.51925    0.91182    1.000
    C192     C        0.67630    0.50681    0.02834    1.000
    Cu23     Cu       0.84048    0.74751    0.90933    1.000
    Cu24     Cu       0.01060    0.72641    0.91183    1.000
    N12      N        0.80200    0.56920    0.93048    1.000
    O100     O        0.93610    0.75644    0.88992    1.000
    O101     O        0.84900    0.68622    0.91500    1.000
    O102     O        0.96180    0.66779    0.91338    1.000
    O103     O        0.03090    0.60771    0.90868    1.000
    O104     O        0.01640    0.54533    0.91275    1.000
    O105     O        0.56490    0.53046    0.88116    1.000
    O106     O        0.50620    0.50299    0.92566    1.000
    O107     O        0.61780    0.50924    0.04267    1.000
    O108     O        0.73390    0.49563    0.04154    1.000
    H132     H        0.00300    0.62720    0.90420    1.000
    H133     H        0.29500    0.47280    0.87870    1.000
    C193     C        0.35450    0.58929    0.91527    1.000
    C194     C        0.25940    0.67180    0.91339    1.000
    C195     C        0.37770    0.63092    0.91994    1.000
    C196     C        0.33590    0.66615    0.91927    1.000
    C197     C        0.38200    0.69619    0.92542    1.000
    C198     C        0.44590    0.64064    0.92665    1.000
    C199     C        0.51200    0.61720    0.93102    1.000
    H134     H        0.50170    0.59020    0.92740    1.000
    H135     H        0.53020    0.62080    0.95410    1.000
    H136     H        0.54640    0.62550    0.91430    1.000
    C200     C        0.37140    0.73920    0.92660    1.000
    H137     H        0.41520    0.75170    0.93200    1.000
    H138     H        0.33720    0.74550    0.94410    1.000
    H139     H        0.35490    0.74810    0.90430    1.000
    C201     C        0.50850    0.70179    0.94312    1.000
    C202     C        0.51020    0.71409    0.97721    1.000
    H140     H        0.47090    0.71080    0.99130    1.000
    C203     C        0.57040    0.73130    0.99055    1.000
    C204     C        0.63070    0.73571    0.96997    1.000
    H141     H        0.67190    0.74580    0.97940    1.000
    C205     C        0.62780    0.72460    0.93484    1.000
    C206     C        0.56750    0.70731    0.92156    1.000
    H142     H        0.56610    0.69940    0.89840    1.000
    C207     C        0.69160    0.73075    0.91182    1.000
    C208     C        0.57370    0.74319    0.02834    1.000
    Cu25     Cu       0.40952    0.50249    0.90933    1.000
    Cu26     Cu       0.23940    0.52359    0.91183    1.000
    N13      N        0.44800    0.68080    0.93048    1.000
    O109     O        0.31390    0.49356    0.88992    1.000
    O110     O        0.40100    0.56378    0.91500    1.000
    O111     O        0.28820    0.58221    0.91338    1.000
    O112     O        0.21910    0.64229    0.90868    1.000
    O113     O        0.23360    0.70467    0.91275    1.000
    O114     O        0.68510    0.71954    0.88116    1.000
    O115     O        0.74380    0.74701    0.92566    1.000
    O116     O        0.63220    0.74076    0.04267    1.000
    O117     O        0.51610    0.75437    0.04154    1.000
    H143     H        0.24700    0.62280    0.90420    1.000
    H144     H        0.29500    0.97280    0.37870    1.000
    C209     C        0.35450    0.08929    0.41527    1.000
    C210     C        0.25940    0.17180    0.41339    1.000
    C211     C        0.37770    0.13092    0.41994    1.000
    C212     C        0.33590    0.16615    0.41927    1.000
    C213     C        0.38200    0.19619    0.42542    1.000
    C214     C        0.44590    0.14064    0.42665    1.000
    C215     C        0.51200    0.11720    0.43102    1.000
    H145     H        0.50170    0.09020    0.42740    1.000
    H146     H        0.53020    0.12080    0.45410    1.000
    H147     H        0.54640    0.12550    0.41430    1.000
    C216     C        0.37140    0.23920    0.42660    1.000
    H148     H        0.41520    0.25170    0.43200    1.000
    H149     H        0.33720    0.24550    0.44410    1.000
    H150     H        0.35490    0.24810    0.40430    1.000
    C217     C        0.50850    0.20179    0.44312    1.000
    C218     C        0.51020    0.21409    0.47721    1.000
    H151     H        0.47090    0.21080    0.49130    1.000
    C219     C        0.57040    0.23130    0.49055    1.000
    C220     C        0.63070    0.23571    0.46997    1.000
    H152     H        0.67190    0.24580    0.47940    1.000
    C221     C        0.62780    0.22460    0.43484    1.000
    C222     C        0.56750    0.20731    0.42156    1.000
    H153     H        0.56610    0.19940    0.39840    1.000
    C223     C        0.69160    0.23075    0.41182    1.000
    C224     C        0.57370    0.24319    0.52834    1.000
    Cu27     Cu       0.40952    0.00249    0.40933    1.000
    Cu28     Cu       0.23940    0.02359    0.41183    1.000
    N14      N        0.44800    0.18080    0.43048    1.000
    O118     O        0.31390    0.99356    0.38992    1.000
    O119     O        0.40100    0.06378    0.41500    1.000
    O120     O        0.28820    0.08221    0.41338    1.000
    O121     O        0.21910    0.14229    0.40868    1.000
    O122     O        0.23360    0.20467    0.41275    1.000
    O123     O        0.68510    0.21954    0.38116    1.000
    O124     O        0.74380    0.24701    0.42566    1.000
    O125     O        0.63220    0.24076    0.54267    1.000
    O126     O        0.51610    0.25437    0.54154    1.000
    H154     H        0.24700    0.12280    0.40420    1.000
    H155     H        0.79500    0.47280    0.37870    1.000
    C225     C        0.85450    0.58929    0.41527    1.000
    C226     C        0.75940    0.67180    0.41339    1.000
    C227     C        0.87770    0.63092    0.41994    1.000
    C228     C        0.83590    0.66615    0.41927    1.000
    C229     C        0.88200    0.69619    0.42542    1.000
    C230     C        0.94590    0.64064    0.42665    1.000
    C231     C        0.01200    0.61720    0.43102    1.000
    H156     H        0.00170    0.59020    0.42740    1.000
    H157     H        0.03020    0.62080    0.45410    1.000
    H158     H        0.04640    0.62550    0.41430    1.000
    C232     C        0.87140    0.73920    0.42660    1.000
    H159     H        0.91520    0.75170    0.43200    1.000
    H160     H        0.83720    0.74550    0.44410    1.000
    H161     H        0.85490    0.74810    0.40430    1.000
    C233     C        0.00850    0.70179    0.44312    1.000
    C234     C        0.01020    0.71409    0.47721    1.000
    H162     H        0.97090    0.71080    0.49130    1.000
    C235     C        0.07040    0.73130    0.49055    1.000
    C236     C        0.13070    0.73571    0.46997    1.000
    H163     H        0.17190    0.74580    0.47940    1.000
    C237     C        0.12780    0.72460    0.43484    1.000
    C238     C        0.06750    0.70731    0.42156    1.000
    H164     H        0.06610    0.69940    0.39840    1.000
    C239     C        0.19160    0.73075    0.41182    1.000
    C240     C        0.07370    0.74319    0.52834    1.000
    Cu29     Cu       0.90952    0.50249    0.40933    1.000
    Cu30     Cu       0.73940    0.52359    0.41183    1.000
    N15      N        0.94800    0.68080    0.43048    1.000
    O127     O        0.81390    0.49356    0.38992    1.000
    O128     O        0.90100    0.56378    0.41500    1.000
    O129     O        0.78820    0.58221    0.41338    1.000
    O130     O        0.71910    0.64229    0.40868    1.000
    O131     O        0.73360    0.70467    0.41275    1.000
    O132     O        0.18510    0.71954    0.38116    1.000
    O133     O        0.24380    0.74701    0.42566    1.000
    O134     O        0.13220    0.74076    0.54267    1.000
    O135     O        0.01610    0.75437    0.54154    1.000
    H165     H        0.74700    0.62280    0.40420    1.000
    H166     H        0.79500    0.97280    0.87870    1.000
    C241     C        0.85450    0.08929    0.91527    1.000
    C242     C        0.75940    0.17180    0.91339    1.000
    C243     C        0.87770    0.13092    0.91994    1.000
    C244     C        0.83590    0.16615    0.91927    1.000
    C245     C        0.88200    0.19619    0.92542    1.000
    C246     C        0.94590    0.14064    0.92665    1.000
    C247     C        0.01200    0.11720    0.93102    1.000
    H167     H        0.00170    0.09020    0.92740    1.000
    H168     H        0.03020    0.12080    0.95410    1.000
    H169     H        0.04640    0.12550    0.91430    1.000
    C248     C        0.87140    0.23920    0.92660    1.000
    H170     H        0.91520    0.25170    0.93200    1.000
    H171     H        0.83720    0.24550    0.94410    1.000
    H172     H        0.85490    0.24810    0.90430    1.000
    C249     C        0.00850    0.20179    0.94312    1.000
    C250     C        0.01020    0.21409    0.97721    1.000
    H173     H        0.97090    0.21080    0.99130    1.000
    C251     C        0.07040    0.23130    0.99055    1.000
    C252     C        0.13070    0.23571    0.96997    1.000
    H174     H        0.17190    0.24580    0.97940    1.000
    C253     C        0.12780    0.22460    0.93484    1.000
    C254     C        0.06750    0.20731    0.92156    1.000
    H175     H        0.06610    0.19940    0.89840    1.000
    C255     C        0.19160    0.23075    0.91182    1.000
    C256     C        0.07370    0.24319    0.02834    1.000
    Cu31     Cu       0.90952    0.00249    0.90933    1.000
    Cu32     Cu       0.73940    0.02359    0.91183    1.000
    N16      N        0.94800    0.18080    0.93048    1.000
    O136     O        0.81390    0.99356    0.88992    1.000
    O137     O        0.90100    0.06378    0.91500    1.000
    O138     O        0.78820    0.08221    0.91338    1.000
    O139     O        0.71910    0.14229    0.90868    1.000
    O140     O        0.73360    0.20467    0.91275    1.000
    O141     O        0.18510    0.21954    0.88116    1.000
    O142     O        0.24380    0.24701    0.92566    1.000
    O143     O        0.13220    0.24076    0.04267    1.000
    O144     O        0.01610    0.25437    0.04154    1.000
    H176     H        0.74700    0.12280    0.90420    1.000
    H177     H        0.70500    0.72280    0.12870    1.000
    C257     C        0.64550    0.83929    0.16527    1.000
    C258     C        0.74060    0.92180    0.16339    1.000
    C259     C        0.62230    0.88092    0.16994    1.000
    C260     C        0.66410    0.91615    0.16927    1.000
    C261     C        0.61800    0.94619    0.17542    1.000
    C262     C        0.55410    0.89064    0.17665    1.000
    C263     C        0.48800    0.86720    0.18102    1.000
    H178     H        0.49830    0.84020    0.17740    1.000
    H179     H        0.46980    0.87080    0.20410    1.000
    H180     H        0.45360    0.87550    0.16430    1.000
    C264     C        0.62860    0.98920    0.17660    1.000
    H181     H        0.58480    0.00170    0.18200    1.000
    H182     H        0.66280    0.99550    0.19410    1.000
    H183     H        0.64510    0.99810    0.15430    1.000
    C265     C        0.49150    0.95179    0.19312    1.000
    C266     C        0.48980    0.96409    0.22721    1.000
    H184     H        0.52910    0.96080    0.24130    1.000
    C267     C        0.42960    0.98130    0.24055    1.000
    C268     C        0.36930    0.98571    0.21997    1.000
    H185     H        0.32810    0.99580    0.22940    1.000
    C269     C        0.37220    0.97460    0.18484    1.000
    C270     C        0.43250    0.95731    0.17156    1.000
    H186     H        0.43390    0.94940    0.14840    1.000
    C271     C        0.30840    0.98075    0.16182    1.000
    C272     C        0.42630    0.99319    0.27834    1.000
    Cu33     Cu       0.59048    0.75249    0.15933    1.000
    Cu34     Cu       0.76060    0.77359    0.16183    1.000
    N17      N        0.55200    0.93080    0.18048    1.000
    O145     O        0.68610    0.74356    0.13992    1.000
    O146     O        0.59900    0.81378    0.16500    1.000
    O147     O        0.71180    0.83221    0.16338    1.000
    O148     O        0.78090    0.89229    0.15868    1.000
    O149     O        0.76640    0.95467    0.16275    1.000
    O150     O        0.31490    0.96954    0.13116    1.000
    O151     O        0.25620    0.99701    0.17566    1.000
    O152     O        0.36780    0.99076    0.29267    1.000
    O153     O        0.48390    0.00437    0.29154    1.000
    H187     H        0.75300    0.87280    0.15420    1.000
    H188     H        0.70500    0.22280    0.62870    1.000
    C273     C        0.64550    0.33929    0.66527    1.000
    C274     C        0.74060    0.42180    0.66339    1.000
    C275     C        0.62230    0.38092    0.66994    1.000
    C276     C        0.66410    0.41615    0.66927    1.000
    C277     C        0.61800    0.44619    0.67542    1.000
    C278     C        0.55410    0.39064    0.67665    1.000
    C279     C        0.48800    0.36720    0.68102    1.000
    H189     H        0.49830    0.34020    0.67740    1.000
    H190     H        0.46980    0.37080    0.70410    1.000
    H191     H        0.45360    0.37550    0.66430    1.000
    C280     C        0.62860    0.48920    0.67660    1.000
    H192     H        0.58480    0.50170    0.68200    1.000
    H193     H        0.66280    0.49550    0.69410    1.000
    H194     H        0.64510    0.49810    0.65430    1.000
    C281     C        0.49150    0.45179    0.69312    1.000
    C282     C        0.48980    0.46409    0.72721    1.000
    H195     H        0.52910    0.46080    0.74130    1.000
    C283     C        0.42960    0.48130    0.74055    1.000
    C284     C        0.36930    0.48571    0.71997    1.000
    H196     H        0.32810    0.49580    0.72940    1.000
    C285     C        0.37220    0.47460    0.68484    1.000
    C286     C        0.43250    0.45731    0.67156    1.000
    H197     H        0.43390    0.44940    0.64840    1.000
    C287     C        0.30840    0.48075    0.66182    1.000
    C288     C        0.42630    0.49319    0.77834    1.000
    Cu35     Cu       0.59048    0.25249    0.65933    1.000
    Cu36     Cu       0.76060    0.27359    0.66183    1.000
    N18      N        0.55200    0.43080    0.68048    1.000
    O154     O        0.68610    0.24356    0.63992    1.000
    O155     O        0.59900    0.31378    0.66500    1.000
    O156     O        0.71180    0.33221    0.66338    1.000
    O157     O        0.78090    0.39229    0.65868    1.000
    O158     O        0.76640    0.45467    0.66275    1.000
    O159     O        0.31490    0.46954    0.63116    1.000
    O160     O        0.25620    0.49701    0.67566    1.000
    O161     O        0.36780    0.49076    0.79267    1.000
    O162     O        0.48390    0.50437    0.79154    1.000
    H198     H        0.75300    0.37280    0.65420    1.000
    H199     H        0.20500    0.72280    0.62870    1.000
    C289     C        0.14550    0.83929    0.66527    1.000
    C290     C        0.24060    0.92180    0.66339    1.000
    C291     C        0.12230    0.88092    0.66994    1.000
    C292     C        0.16410    0.91615    0.66927    1.000
    C293     C        0.11800    0.94619    0.67542    1.000
    C294     C        0.05410    0.89064    0.67665    1.000
    C295     C        0.98800    0.86720    0.68102    1.000
    H200     H        0.99830    0.84020    0.67740    1.000
    H201     H        0.96980    0.87080    0.70410    1.000
    H202     H        0.95360    0.87550    0.66430    1.000
    C296     C        0.12860    0.98920    0.67660    1.000
    H203     H        0.08480    0.00170    0.68200    1.000
    H204     H        0.16280    0.99550    0.69410    1.000
    H205     H        0.14510    0.99810    0.65430    1.000
    C297     C        0.99150    0.95179    0.69312    1.000
    C298     C        0.98980    0.96409    0.72721    1.000
    H206     H        0.02910    0.96080    0.74130    1.000
    C299     C        0.92960    0.98130    0.74055    1.000
    C300     C        0.86930    0.98571    0.71997    1.000
    H207     H        0.82810    0.99580    0.72940    1.000
    C301     C        0.87220    0.97460    0.68484    1.000
    C302     C        0.93250    0.95731    0.67156    1.000
    H208     H        0.93390    0.94940    0.64840    1.000
    C303     C        0.80840    0.98075    0.66182    1.000
    C304     C        0.92630    0.99319    0.77834    1.000
    Cu37     Cu       0.09048    0.75249    0.65933    1.000
    Cu38     Cu       0.26060    0.77359    0.66183    1.000
    N19      N        0.05200    0.93080    0.68048    1.000
    O163     O        0.18610    0.74356    0.63992    1.000
    O164     O        0.09900    0.81378    0.66500    1.000
    O165     O        0.21180    0.83221    0.66338    1.000
    O166     O        0.28090    0.89229    0.65868    1.000
    O167     O        0.26640    0.95467    0.66275    1.000
    O168     O        0.81490    0.96954    0.63116    1.000
    O169     O        0.75620    0.99701    0.67566    1.000
    O170     O        0.86780    0.99076    0.79267    1.000
    O171     O        0.98390    0.00437    0.79154    1.000
    H209     H        0.25300    0.87280    0.65420    1.000
    H210     H        0.20500    0.22280    0.12870    1.000
    C305     C        0.14550    0.33929    0.16527    1.000
    C306     C        0.24060    0.42180    0.16339    1.000
    C307     C        0.12230    0.38092    0.16994    1.000
    C308     C        0.16410    0.41615    0.16927    1.000
    C309     C        0.11800    0.44619    0.17542    1.000
    C310     C        0.05410    0.39064    0.17665    1.000
    C311     C        0.98800    0.36720    0.18102    1.000
    H211     H        0.99830    0.34020    0.17740    1.000
    H212     H        0.96980    0.37080    0.20410    1.000
    H213     H        0.95360    0.37550    0.16430    1.000
    C312     C        0.12860    0.48920    0.17660    1.000
    H214     H        0.08480    0.50170    0.18200    1.000
    H215     H        0.16280    0.49550    0.19410    1.000
    H216     H        0.14510    0.49810    0.15430    1.000
    C313     C        0.99150    0.45179    0.19312    1.000
    C314     C        0.98980    0.46409    0.22721    1.000
    H217     H        0.02910    0.46080    0.24130    1.000
    C315     C        0.92960    0.48130    0.24055    1.000
    C316     C        0.86930    0.48571    0.21997    1.000
    H218     H        0.82810    0.49580    0.22940    1.000
    C317     C        0.87220    0.47460    0.18484    1.000
    C318     C        0.93250    0.45731    0.17156    1.000
    H219     H        0.93390    0.44940    0.14840    1.000
    C319     C        0.80840    0.48075    0.16182    1.000
    C320     C        0.92630    0.49319    0.27834    1.000
    Cu39     Cu       0.09048    0.25249    0.15933    1.000
    Cu40     Cu       0.26060    0.27359    0.16183    1.000
    N20      N        0.05200    0.43080    0.18048    1.000
    O172     O        0.18610    0.24356    0.13992    1.000
    O173     O        0.09900    0.31378    0.16500    1.000
    O174     O        0.21180    0.33221    0.16338    1.000
    O175     O        0.28090    0.39229    0.15868    1.000
    O176     O        0.26640    0.45467    0.16275    1.000
    O177     O        0.81490    0.46954    0.13116    1.000
    O178     O        0.75620    0.49701    0.17566    1.000
    O179     O        0.86780    0.49076    0.29267    1.000
    O180     O        0.98390    0.50437    0.29154    1.000
    H220     H        0.25300    0.37280    0.15420    1.000
    H221     H        0.54500    0.52720    0.12870    1.000
    C321     C        0.60450    0.41071    0.16527    1.000
    C322     C        0.50940    0.32820    0.16339    1.000
    C323     C        0.62770    0.36908    0.16994    1.000
    C324     C        0.58590    0.33385    0.16927    1.000
    C325     C        0.63200    0.30381    0.17542    1.000
    C326     C        0.69590    0.35936    0.17665    1.000
    C327     C        0.76200    0.38280    0.18102    1.000
    H222     H        0.75170    0.40980    0.17740    1.000
    H223     H        0.78020    0.37920    0.20410    1.000
    H224     H        0.79640    0.37450    0.16430    1.000
    C328     C        0.62140    0.26080    0.17660    1.000
    H225     H        0.66520    0.24830    0.18200    1.000
    H226     H        0.58720    0.25450    0.19410    1.000
    H227     H        0.60490    0.25190    0.15430    1.000
    C329     C        0.75850    0.29821    0.19312    1.000
    C330     C        0.76020    0.28591    0.22721    1.000
    H228     H        0.72090    0.28920    0.24130    1.000
    C331     C        0.82040    0.26870    0.24055    1.000
    C332     C        0.88070    0.26429    0.21997    1.000
    H229     H        0.92190    0.25420    0.22940    1.000
    C333     C        0.87780    0.27540    0.18484    1.000
    C334     C        0.81750    0.29269    0.17156    1.000
    H230     H        0.81610    0.30060    0.14840    1.000
    C335     C        0.94160    0.26925    0.16182    1.000
    C336     C        0.82370    0.25681    0.27834    1.000
    Cu41     Cu       0.65952    0.49751    0.15933    1.000
    Cu42     Cu       0.48940    0.47641    0.16183    1.000
    N21      N        0.69800    0.31920    0.18048    1.000
    O181     O        0.56390    0.50644    0.13992    1.000
    O182     O        0.65100    0.43622    0.16500    1.000
    O183     O        0.53820    0.41779    0.16338    1.000
    O184     O        0.46910    0.35771    0.15868    1.000
    O185     O        0.48360    0.29533    0.16275    1.000
    O186     O        0.93510    0.28046    0.13116    1.000
    O187     O        0.99380    0.25299    0.17566    1.000
    O188     O        0.88220    0.25924    0.29267    1.000
    O189     O        0.76610    0.24563    0.29154    1.000
    H231     H        0.49700    0.37720    0.15420    1.000
    H232     H        0.54500    0.02720    0.62870    1.000
    C337     C        0.60450    0.91071    0.66527    1.000
    C338     C        0.50940    0.82820    0.66339    1.000
    C339     C        0.62770    0.86908    0.66994    1.000
    C340     C        0.58590    0.83385    0.66927    1.000
    C341     C        0.63200    0.80381    0.67542    1.000
    C342     C        0.69590    0.85936    0.67665    1.000
    C343     C        0.76200    0.88280    0.68102    1.000
    H233     H        0.75170    0.90980    0.67740    1.000
    H234     H        0.78020    0.87920    0.70410    1.000
    H235     H        0.79640    0.87450    0.66430    1.000
    C344     C        0.62140    0.76080    0.67660    1.000
    H236     H        0.66520    0.74830    0.68200    1.000
    H237     H        0.58720    0.75450    0.69410    1.000
    H238     H        0.60490    0.75190    0.65430    1.000
    C345     C        0.75850    0.79821    0.69312    1.000
    C346     C        0.76020    0.78591    0.72721    1.000
    H239     H        0.72090    0.78920    0.74130    1.000
    C347     C        0.82040    0.76870    0.74055    1.000
    C348     C        0.88070    0.76429    0.71997    1.000
    H240     H        0.92190    0.75420    0.72940    1.000
    C349     C        0.87780    0.77540    0.68484    1.000
    C350     C        0.81750    0.79269    0.67156    1.000
    H241     H        0.81610    0.80060    0.64840    1.000
    C351     C        0.94160    0.76925    0.66182    1.000
    C352     C        0.82370    0.75681    0.77834    1.000
    Cu43     Cu       0.65952    0.99751    0.65933    1.000
    Cu44     Cu       0.48940    0.97641    0.66183    1.000
    N22      N        0.69800    0.81920    0.68048    1.000
    O190     O        0.56390    0.00644    0.63992    1.000
    O191     O        0.65100    0.93622    0.66500    1.000
    O192     O        0.53820    0.91779    0.66338    1.000
    O193     O        0.46910    0.85771    0.65868    1.000
    O194     O        0.48360    0.79533    0.66275    1.000
    O195     O        0.93510    0.78046    0.63116    1.000
    O196     O        0.99380    0.75299    0.67566    1.000
    O197     O        0.88220    0.75924    0.79267    1.000
    O198     O        0.76610    0.74563    0.79154    1.000
    H242     H        0.49700    0.87720    0.65420    1.000
    H243     H        0.04500    0.52720    0.62870    1.000
    C353     C        0.10450    0.41071    0.66527    1.000
    C354     C        0.00940    0.32820    0.66339    1.000
    C355     C        0.12770    0.36908    0.66994    1.000
    C356     C        0.08590    0.33385    0.66927    1.000
    C357     C        0.13200    0.30381    0.67542    1.000
    C358     C        0.19590    0.35936    0.67665    1.000
    C359     C        0.26200    0.38280    0.68102    1.000
    H244     H        0.25170    0.40980    0.67740    1.000
    H245     H        0.28020    0.37920    0.70410    1.000
    H246     H        0.29640    0.37450    0.66430    1.000
    C360     C        0.12140    0.26080    0.67660    1.000
    H247     H        0.16520    0.24830    0.68200    1.000
    H248     H        0.08720    0.25450    0.69410    1.000
    H249     H        0.10490    0.25190    0.65430    1.000
    C361     C        0.25850    0.29821    0.69312    1.000
    C362     C        0.26020    0.28591    0.72721    1.000
    H250     H        0.22090    0.28920    0.74130    1.000
    C363     C        0.32040    0.26870    0.74055    1.000
    C364     C        0.38070    0.26429    0.71997    1.000
    H251     H        0.42190    0.25420    0.72940    1.000
    C365     C        0.37780    0.27540    0.68484    1.000
    C366     C        0.31750    0.29269    0.67156    1.000
    H252     H        0.31610    0.30060    0.64840    1.000
    C367     C        0.44160    0.26925    0.66182    1.000
    C368     C        0.32370    0.25681    0.77834    1.000
    Cu45     Cu       0.15952    0.49751    0.65933    1.000
    Cu46     Cu       0.98940    0.47641    0.66183    1.000
    N23      N        0.19800    0.31920    0.68048    1.000
    O199     O        0.06390    0.50644    0.63992    1.000
    O200     O        0.15100    0.43622    0.66500    1.000
    O201     O        0.03820    0.41779    0.66338    1.000
    O202     O        0.96910    0.35771    0.65868    1.000
    O203     O        0.98360    0.29533    0.66275    1.000
    O204     O        0.43510    0.28046    0.63116    1.000
    O205     O        0.49380    0.25299    0.67566    1.000
    O206     O        0.38220    0.25924    0.79267    1.000
    O207     O        0.26610    0.24563    0.79154    1.000
    H253     H        0.99700    0.37720    0.65420    1.000
    H254     H        0.04500    0.02720    0.12870    1.000
    C369     C        0.10450    0.91071    0.16527    1.000
    C370     C        0.00940    0.82820    0.16339    1.000
    C371     C        0.12770    0.86908    0.16994    1.000
    C372     C        0.08590    0.83385    0.16927    1.000
    C373     C        0.13200    0.80381    0.17542    1.000
    C374     C        0.19590    0.85936    0.17665    1.000
    C375     C        0.26200    0.88280    0.18102    1.000
    H255     H        0.25170    0.90980    0.17740    1.000
    H256     H        0.28020    0.87920    0.20410    1.000
    H257     H        0.29640    0.87450    0.16430    1.000
    C376     C        0.12140    0.76080    0.17660    1.000
    H258     H        0.16520    0.74830    0.18200    1.000
    H259     H        0.08720    0.75450    0.19410    1.000
    H260     H        0.10490    0.75190    0.15430    1.000
    C377     C        0.25850    0.79821    0.19312    1.000
    C378     C        0.26020    0.78591    0.22721    1.000
    H261     H        0.22090    0.78920    0.24130    1.000
    C379     C        0.32040    0.76870    0.24055    1.000
    C380     C        0.38070    0.76429    0.21997    1.000
    H262     H        0.42190    0.75420    0.22940    1.000
    C381     C        0.37780    0.77540    0.18484    1.000
    C382     C        0.31750    0.79269    0.17156    1.000
    H263     H        0.31610    0.80060    0.14840    1.000
    C383     C        0.44160    0.76925    0.16182    1.000
    C384     C        0.32370    0.75681    0.27834    1.000
    Cu47     Cu       0.15952    0.99751    0.15933    1.000
    Cu48     Cu       0.98940    0.97641    0.16183    1.000
    N24      N        0.19800    0.81920    0.18048    1.000
    O208     O        0.06390    0.00644    0.13992    1.000
    O209     O        0.15100    0.93622    0.16500    1.000
    O210     O        0.03820    0.91779    0.16338    1.000
    O211     O        0.96910    0.85771    0.15868    1.000
    O212     O        0.98360    0.79533    0.16275    1.000
    O213     O        0.43510    0.78046    0.13116    1.000
    O214     O        0.49380    0.75299    0.17566    1.000
    O215     O        0.38220    0.75924    0.29267    1.000
    O216     O        0.26610    0.74563    0.29154    1.000
    H264     H        0.99700    0.87720    0.15420    1.000
    H265     H        0.54500    0.72280    0.12130    1.000
    C385     C        0.60450    0.83929    0.08473    1.000
    C386     C        0.50940    0.92180    0.08661    1.000
    C387     C        0.62770    0.88092    0.08006    1.000
    C388     C        0.58590    0.91615    0.08073    1.000
    C389     C        0.63200    0.94619    0.07458    1.000
    C390     C        0.69590    0.89064    0.07335    1.000
    C391     C        0.76200    0.86720    0.06898    1.000
    H266     H        0.75170    0.84020    0.07260    1.000
    H267     H        0.78020    0.87080    0.04590    1.000
    H268     H        0.79640    0.87550    0.08570    1.000
    C392     C        0.62140    0.98920    0.07340    1.000
    H269     H        0.66520    0.00170    0.06800    1.000
    H270     H        0.58720    0.99550    0.05590    1.000
    H271     H        0.60490    0.99810    0.09570    1.000
    C393     C        0.75850    0.95179    0.05688    1.000
    C394     C        0.76020    0.96409    0.02279    1.000
    H272     H        0.72090    0.96080    0.00870    1.000
    C395     C        0.82040    0.98130    0.00945    1.000
    C396     C        0.88070    0.98571    0.03003    1.000
    H273     H        0.92190    0.99580    0.02060    1.000
    C397     C        0.87780    0.97460    0.06516    1.000
    C398     C        0.81750    0.95731    0.07844    1.000
    H274     H        0.81610    0.94940    0.10160    1.000
    C399     C        0.94160    0.98075    0.08818    1.000
    C400     C        0.82370    0.99319    0.97166    1.000
    Cu49     Cu       0.65952    0.75249    0.09067    1.000
    Cu50     Cu       0.48940    0.77359    0.08817    1.000
    N25      N        0.69800    0.93080    0.06952    1.000
    O217     O        0.56390    0.74356    0.11008    1.000
    O218     O        0.65100    0.81378    0.08500    1.000
    O219     O        0.53820    0.83221    0.08662    1.000
    O220     O        0.46910    0.89229    0.09132    1.000
    O221     O        0.48360    0.95467    0.08725    1.000
    O222     O        0.93510    0.96954    0.11884    1.000
    O223     O        0.99380    0.99701    0.07434    1.000
    O224     O        0.88220    0.99076    0.95733    1.000
    O225     O        0.76610    0.00437    0.95846    1.000
    H275     H        0.49700    0.87280    0.09580    1.000
    H276     H        0.54500    0.22280    0.62130    1.000
    C401     C        0.60450    0.33929    0.58473    1.000
    C402     C        0.50940    0.42180    0.58661    1.000
    C403     C        0.62770    0.38092    0.58006    1.000
    C404     C        0.58590    0.41615    0.58073    1.000
    C405     C        0.63200    0.44619    0.57458    1.000
    C406     C        0.69590    0.39064    0.57335    1.000
    C407     C        0.76200    0.36720    0.56898    1.000
    H277     H        0.75170    0.34020    0.57260    1.000
    H278     H        0.78020    0.37080    0.54590    1.000
    H279     H        0.79640    0.37550    0.58570    1.000
    C408     C        0.62140    0.48920    0.57340    1.000
    H280     H        0.66520    0.50170    0.56800    1.000
    H281     H        0.58720    0.49550    0.55590    1.000
    H282     H        0.60490    0.49810    0.59570    1.000
    C409     C        0.75850    0.45179    0.55688    1.000
    C410     C        0.76020    0.46409    0.52279    1.000
    H283     H        0.72090    0.46080    0.50870    1.000
    C411     C        0.82040    0.48130    0.50945    1.000
    C412     C        0.88070    0.48571    0.53003    1.000
    H284     H        0.92190    0.49580    0.52060    1.000
    C413     C        0.87780    0.47460    0.56516    1.000
    C414     C        0.81750    0.45731    0.57844    1.000
    H285     H        0.81610    0.44940    0.60160    1.000
    C415     C        0.94160    0.48075    0.58818    1.000
    C416     C        0.82370    0.49319    0.47166    1.000
    Cu51     Cu       0.65952    0.25249    0.59067    1.000
    Cu52     Cu       0.48940    0.27359    0.58817    1.000
    N26      N        0.69800    0.43080    0.56952    1.000
    O226     O        0.56390    0.24356    0.61008    1.000
    O227     O        0.65100    0.31378    0.58500    1.000
    O228     O        0.53820    0.33221    0.58662    1.000
    O229     O        0.46910    0.39229    0.59132    1.000
    O230     O        0.48360    0.45467    0.58725    1.000
    O231     O        0.93510    0.46954    0.61884    1.000
    O232     O        0.99380    0.49701    0.57434    1.000
    O233     O        0.88220    0.49076    0.45733    1.000
    O234     O        0.76610    0.50437    0.45846    1.000
    H286     H        0.49700    0.37280    0.59580    1.000
    H287     H        0.04500    0.72280    0.62130    1.000
    C417     C        0.10450    0.83929    0.58473    1.000
    C418     C        0.00940    0.92180    0.58661    1.000
    C419     C        0.12770    0.88092    0.58006    1.000
    C420     C        0.08590    0.91615    0.58073    1.000
    C421     C        0.13200    0.94619    0.57458    1.000
    C422     C        0.19590    0.89064    0.57335    1.000
    C423     C        0.26200    0.86720    0.56898    1.000
    H288     H        0.25170    0.84020    0.57260    1.000
    H289     H        0.28020    0.87080    0.54590    1.000
    H290     H        0.29640    0.87550    0.58570    1.000
    C424     C        0.12140    0.98920    0.57340    1.000
    H291     H        0.16520    0.00170    0.56800    1.000
    H292     H        0.08720    0.99550    0.55590    1.000
    H293     H        0.10490    0.99810    0.59570    1.000
    C425     C        0.25850    0.95179    0.55688    1.000
    C426     C        0.26020    0.96409    0.52279    1.000
    H294     H        0.22090    0.96080    0.50870    1.000
    C427     C        0.32040    0.98130    0.50945    1.000
    C428     C        0.38070    0.98571    0.53003    1.000
    H295     H        0.42190    0.99580    0.52060    1.000
    C429     C        0.37780    0.97460    0.56516    1.000
    C430     C        0.31750    0.95731    0.57844    1.000
    H296     H        0.31610    0.94940    0.60160    1.000
    C431     C        0.44160    0.98075    0.58818    1.000
    C432     C        0.32370    0.99319    0.47166    1.000
    Cu53     Cu       0.15952    0.75249    0.59067    1.000
    Cu54     Cu       0.98940    0.77359    0.58817    1.000
    N27      N        0.19800    0.93080    0.56952    1.000
    O235     O        0.06390    0.74356    0.61008    1.000
    O236     O        0.15100    0.81378    0.58500    1.000
    O237     O        0.03820    0.83221    0.58662    1.000
    O238     O        0.96910    0.89229    0.59132    1.000
    O239     O        0.98360    0.95467    0.58725    1.000
    O240     O        0.43510    0.96954    0.61884    1.000
    O241     O        0.49380    0.99701    0.57434    1.000
    O242     O        0.38220    0.99076    0.45733    1.000
    O243     O        0.26610    0.00437    0.45846    1.000
    H297     H        0.99700    0.87280    0.59580    1.000
    H298     H        0.04500    0.22280    0.12130    1.000
    C433     C        0.10450    0.33929    0.08473    1.000
    C434     C        0.00940    0.42180    0.08661    1.000
    C435     C        0.12770    0.38092    0.08006    1.000
    C436     C        0.08590    0.41615    0.08073    1.000
    C437     C        0.13200    0.44619    0.07458    1.000
    C438     C        0.19590    0.39064    0.07335    1.000
    C439     C        0.26200    0.36720    0.06898    1.000
    H299     H        0.25170    0.34020    0.07260    1.000
    H300     H        0.28020    0.37080    0.04590    1.000
    H301     H        0.29640    0.37550    0.08570    1.000
    C440     C        0.12140    0.48920    0.07340    1.000
    H302     H        0.16520    0.50170    0.06800    1.000
    H303     H        0.08720    0.49550    0.05590    1.000
    H304     H        0.10490    0.49810    0.09570    1.000
    C441     C        0.25850    0.45179    0.05688    1.000
    C442     C        0.26020    0.46409    0.02279    1.000
    H305     H        0.22090    0.46080    0.00870    1.000
    C443     C        0.32040    0.48130    0.00945    1.000
    C444     C        0.38070    0.48571    0.03003    1.000
    H306     H        0.42190    0.49580    0.02060    1.000
    C445     C        0.37780    0.47460    0.06516    1.000
    C446     C        0.31750    0.45731    0.07844    1.000
    H307     H        0.31610    0.44940    0.10160    1.000
    C447     C        0.44160    0.48075    0.08818    1.000
    C448     C        0.32370    0.49319    0.97166    1.000
    Cu55     Cu       0.15952    0.25249    0.09067    1.000
    Cu56     Cu       0.98940    0.27359    0.08817    1.000
    N28      N        0.19800    0.43080    0.06952    1.000
    O244     O        0.06390    0.24356    0.11008    1.000
    O245     O        0.15100    0.31378    0.08500    1.000
    O246     O        0.03820    0.33221    0.08662    1.000
    O247     O        0.96910    0.39229    0.09132    1.000
    O248     O        0.98360    0.45467    0.08725    1.000
    O249     O        0.43510    0.46954    0.11884    1.000
    O250     O        0.49380    0.49701    0.07434    1.000
    O251     O        0.38220    0.49076    0.95733    1.000
    O252     O        0.26610    0.50437    0.95846    1.000
    H308     H        0.99700    0.37280    0.09580    1.000
    H309     H        0.70500    0.52720    0.12130    1.000
    C449     C        0.64550    0.41071    0.08473    1.000
    C450     C        0.74060    0.32820    0.08661    1.000
    C451     C        0.62230    0.36908    0.08006    1.000
    C452     C        0.66410    0.33385    0.08073    1.000
    C453     C        0.61800    0.30381    0.07458    1.000
    C454     C        0.55410    0.35936    0.07335    1.000
    C455     C        0.48800    0.38280    0.06898    1.000
    H310     H        0.49830    0.40980    0.07260    1.000
    H311     H        0.46980    0.37920    0.04590    1.000
    H312     H        0.45360    0.37450    0.08570    1.000
    C456     C        0.62860    0.26080    0.07340    1.000
    H313     H        0.58480    0.24830    0.06800    1.000
    H314     H        0.66280    0.25450    0.05590    1.000
    H315     H        0.64510    0.25190    0.09570    1.000
    C457     C        0.49150    0.29821    0.05688    1.000
    C458     C        0.48980    0.28591    0.02279    1.000
    H316     H        0.52910    0.28920    0.00870    1.000
    C459     C        0.42960    0.26870    0.00945    1.000
    C460     C        0.36930    0.26429    0.03003    1.000
    H317     H        0.32810    0.25420    0.02060    1.000
    C461     C        0.37220    0.27540    0.06516    1.000
    C462     C        0.43250    0.29269    0.07844    1.000
    H318     H        0.43390    0.30060    0.10160    1.000
    C463     C        0.30840    0.26925    0.08818    1.000
    C464     C        0.42630    0.25681    0.97166    1.000
    Cu57     Cu       0.59048    0.49751    0.09067    1.000
    Cu58     Cu       0.76060    0.47641    0.08817    1.000
    N29      N        0.55200    0.31920    0.06952    1.000
    O253     O        0.68610    0.50644    0.11008    1.000
    O254     O        0.59900    0.43622    0.08500    1.000
    O255     O        0.71180    0.41779    0.08662    1.000
    O256     O        0.78090    0.35771    0.09132    1.000
    O257     O        0.76640    0.29533    0.08725    1.000
    O258     O        0.31490    0.28046    0.11884    1.000
    O259     O        0.25620    0.25299    0.07434    1.000
    O260     O        0.36780    0.25924    0.95733    1.000
    O261     O        0.48390    0.24563    0.95846    1.000
    H319     H        0.75300    0.37720    0.09580    1.000
    H320     H        0.70500    0.02720    0.62130    1.000
    C465     C        0.64550    0.91071    0.58473    1.000
    C466     C        0.74060    0.82820    0.58661    1.000
    C467     C        0.62230    0.86908    0.58006    1.000
    C468     C        0.66410    0.83385    0.58073    1.000
    C469     C        0.61800    0.80381    0.57458    1.000
    C470     C        0.55410    0.85936    0.57335    1.000
    C471     C        0.48800    0.88280    0.56898    1.000
    H321     H        0.49830    0.90980    0.57260    1.000
    H322     H        0.46980    0.87920    0.54590    1.000
    H323     H        0.45360    0.87450    0.58570    1.000
    C472     C        0.62860    0.76080    0.57340    1.000
    H324     H        0.58480    0.74830    0.56800    1.000
    H325     H        0.66280    0.75450    0.55590    1.000
    H326     H        0.64510    0.75190    0.59570    1.000
    C473     C        0.49150    0.79821    0.55688    1.000
    C474     C        0.48980    0.78591    0.52279    1.000
    H327     H        0.52910    0.78920    0.50870    1.000
    C475     C        0.42960    0.76870    0.50945    1.000
    C476     C        0.36930    0.76429    0.53003    1.000
    H328     H        0.32810    0.75420    0.52060    1.000
    C477     C        0.37220    0.77540    0.56516    1.000
    C478     C        0.43250    0.79269    0.57844    1.000
    H329     H        0.43390    0.80060    0.60160    1.000
    C479     C        0.30840    0.76925    0.58818    1.000
    C480     C        0.42630    0.75681    0.47166    1.000
    Cu59     Cu       0.59048    0.99751    0.59067    1.000
    Cu60     Cu       0.76060    0.97641    0.58817    1.000
    N30      N        0.55200    0.81920    0.56952    1.000
    O262     O        0.68610    0.00644    0.61008    1.000
    O263     O        0.59900    0.93622    0.58500    1.000
    O264     O        0.71180    0.91779    0.58662    1.000
    O265     O        0.78090    0.85771    0.59132    1.000
    O266     O        0.76640    0.79533    0.58725    1.000
    O267     O        0.31490    0.78046    0.61884    1.000
    O268     O        0.25620    0.75299    0.57434    1.000
    O269     O        0.36780    0.75924    0.45733    1.000
    O270     O        0.48390    0.74563    0.45846    1.000
    H330     H        0.75300    0.87720    0.59580    1.000
    H331     H        0.20500    0.52720    0.62130    1.000
    C481     C        0.14550    0.41071    0.58473    1.000
    C482     C        0.24060    0.32820    0.58661    1.000
    C483     C        0.12230    0.36908    0.58006    1.000
    C484     C        0.16410    0.33385    0.58073    1.000
    C485     C        0.11800    0.30381    0.57458    1.000
    C486     C        0.05410    0.35936    0.57335    1.000
    C487     C        0.98800    0.38280    0.56898    1.000
    H332     H        0.99830    0.40980    0.57260    1.000
    H333     H        0.96980    0.37920    0.54590    1.000
    H334     H        0.95360    0.37450    0.58570    1.000
    C488     C        0.12860    0.26080    0.57340    1.000
    H335     H        0.08480    0.24830    0.56800    1.000
    H336     H        0.16280    0.25450    0.55590    1.000
    H337     H        0.14510    0.25190    0.59570    1.000
    C489     C        0.99150    0.29821    0.55688    1.000
    C490     C        0.98980    0.28591    0.52279    1.000
    H338     H        0.02910    0.28920    0.50870    1.000
    C491     C        0.92960    0.26870    0.50945    1.000
    C492     C        0.86930    0.26429    0.53003    1.000
    H339     H        0.82810    0.25420    0.52060    1.000
    C493     C        0.87220    0.27540    0.56516    1.000
    C494     C        0.93250    0.29269    0.57844    1.000
    H340     H        0.93390    0.30060    0.60160    1.000
    C495     C        0.80840    0.26925    0.58818    1.000
    C496     C        0.92630    0.25681    0.47166    1.000
    Cu61     Cu       0.09048    0.49751    0.59067    1.000
    Cu62     Cu       0.26060    0.47641    0.58817    1.000
    N31      N        0.05200    0.31920    0.56952    1.000
    O271     O        0.18610    0.50644    0.61008    1.000
    O272     O        0.09900    0.43622    0.58500    1.000
    O273     O        0.21180    0.41779    0.58662    1.000
    O274     O        0.28090    0.35771    0.59132    1.000
    O275     O        0.26640    0.29533    0.58725    1.000
    O276     O        0.81490    0.28046    0.61884    1.000
    O277     O        0.75620    0.25299    0.57434    1.000
    O278     O        0.86780    0.25924    0.45733    1.000
    O279     O        0.98390    0.24563    0.45846    1.000
    H341     H        0.25300    0.37720    0.59580    1.000
    H342     H        0.20500    0.02720    0.12130    1.000
    C497     C        0.14550    0.91071    0.08473    1.000
    C498     C        0.24060    0.82820    0.08661    1.000
    C499     C        0.12230    0.86908    0.08006    1.000
    C500     C        0.16410    0.83385    0.08073    1.000
    C501     C        0.11800    0.80381    0.07458    1.000
    C502     C        0.05410    0.85936    0.07335    1.000
    C503     C        0.98800    0.88280    0.06898    1.000
    H343     H        0.99830    0.90980    0.07260    1.000
    H344     H        0.96980    0.87920    0.04590    1.000
    H345     H        0.95360    0.87450    0.08570    1.000
    C504     C        0.12860    0.76080    0.07340    1.000
    H346     H        0.08480    0.74830    0.06800    1.000
    H347     H        0.16280    0.75450    0.05590    1.000
    H348     H        0.14510    0.75190    0.09570    1.000
    C505     C        0.99150    0.79821    0.05688    1.000
    C506     C        0.98980    0.78591    0.02279    1.000
    H349     H        0.02910    0.78920    0.00870    1.000
    C507     C        0.92960    0.76870    0.00945    1.000
    C508     C        0.86930    0.76429    0.03003    1.000
    H350     H        0.82810    0.75420    0.02060    1.000
    C509     C        0.87220    0.77540    0.06516    1.000
    C510     C        0.93250    0.79269    0.07844    1.000
    H351     H        0.93390    0.80060    0.10160    1.000
    C511     C        0.80840    0.76925    0.08818    1.000
    C512     C        0.92630    0.75681    0.97166    1.000
    Cu63     Cu       0.09048    0.99751    0.09067    1.000
    Cu64     Cu       0.26060    0.97641    0.08817    1.000
    N32      N        0.05200    0.81920    0.06952    1.000
    O280     O        0.18610    0.00644    0.11008    1.000
    O281     O        0.09900    0.93622    0.08500    1.000
    O282     O        0.21180    0.91779    0.08662    1.000
    O283     O        0.28090    0.85771    0.09132    1.000
    O284     O        0.26640    0.79533    0.08725    1.000
    O285     O        0.81490    0.78046    0.11884    1.000
    O286     O        0.75620    0.75299    0.07434    1.000
    O287     O        0.86780    0.75924    0.95733    1.000
    O288     O        0.98390    0.74563    0.95846    1.000
    H352     H        0.25300    0.87720    0.09580    1.000
