# CIF file generated by openbabel 3.1.0, see https://openbabel.org
data_I
_chemical_name_common 'image0'
_cell_length_a 8.014
_cell_length_b 9.74
_cell_length_c 7.744
_cell_angle_alpha 102.32
_cell_angle_beta 93.38
_cell_angle_gamma 75.9
_space_group_name_H-M_alt 'P 1'
_space_group_name_Hall 'P 1'
loop_
    _symmetry_equiv_pos_as_xyz
    x,y,z
loop_
    _atom_site_label
    _atom_site_type_symbol
    _atom_site_fract_x
    _atom_site_fract_y
    _atom_site_fract_z
    _atom_site_occupancy
    Mn1      Mn       0.03196    0.25126    0.15892    1.000
    Mn2      Mn       0.30922    0.11955    0.81271    1.000
    P1       P        0.73268    0.08984    0.92682    1.000
    O1       O        0.15950    0.33910    0.97170    1.000
    O2       O        0.80610    0.21060    0.03750    1.000
    O3       O        0.10600    0.51440    0.81650    1.000
    O4       O        0.94540    0.21990    0.41040    1.000
    O5       O        0.24030    0.28300    0.34660    1.000
    O6       O        0.80470    0.94590    0.98480    1.000
    O7       O        0.06050    0.15370    0.65930    1.000
    O8       O        0.36010    0.20710    0.58670    1.000
    O9       O        0.53940    0.13350    0.93020    1.000
    O10      O        0.78830    0.06670    0.72750    1.000
    C1       C        0.06530    0.19920    0.52040    1.000
    C2       C        0.23710    0.23330    0.48170    1.000
    C3       C        0.07660    0.45820    0.93750    1.000
    Mn3      Mn       0.96804    0.74874    0.84108    1.000
    Mn4      Mn       0.69078    0.88045    0.18729    1.000
    P2       P        0.26732    0.91016    0.07318    1.000
    O11      O        0.84050    0.66090    0.02830    1.000
    O12      O        0.19390    0.78940    0.96250    1.000
    O13      O        0.89400    0.48560    0.18350    1.000
    O14      O        0.05460    0.78010    0.58960    1.000
    O15      O        0.75970    0.71700    0.65340    1.000
    O16      O        0.19530    0.05410    0.01520    1.000
    O17      O        0.93950    0.84630    0.34070    1.000
    O18      O        0.63990    0.79290    0.41330    1.000
    O19      O        0.46060    0.86650    0.06980    1.000
    O20      O        0.21170    0.93330    0.27250    1.000
    C4       C        0.93470    0.80080    0.47960    1.000
    C5       C        0.76290    0.76670    0.51830    1.000
    C6       C        0.92340    0.54180    0.06250    1.000
