# CIF file generated by openbabel 3.1.0, see https://openbabel.org
data_I
_chemical_name_common 'image0'
_cell_length_a 17.1216
_cell_length_b 17.444
_cell_length_c 7.8768
_cell_angle_alpha 90
_cell_angle_beta 90
_cell_angle_gamma 90
_space_group_name_H-M_alt 'P 1'
_space_group_name_Hall 'P 1'
loop_
    _symmetry_equiv_pos_as_xyz
    x,y,z
loop_
    _atom_site_label
    _atom_site_type_symbol
    _atom_site_fract_x
    _atom_site_fract_y
    _atom_site_fract_z
    _atom_site_occupancy
    Ca1      Ca       0.07915    0.30342    0.67783    1.000
    O1       O        0.00593    0.24441    0.92370    1.000
    O2       O        0.07490    0.62853    0.04610    1.000
    O3       O        0.02452    0.61185    0.30600    1.000
    C1       C        0.06090    0.58680    0.17830    1.000
    C2       C        0.09030    0.50650    0.17870    1.000
    C3       C        0.10560    0.46860    0.02620    1.000
    H1       H        0.09490    0.49310    0.92390    1.000
    C4       C        0.13660    0.39470    0.02470    1.000
    O4       O        0.15436    0.35783    0.88050    1.000
    C5       C        0.15050    0.35810    0.18150    1.000
    O5       O        0.17846    0.28650    0.18310    1.000
    C6       C        0.13700    0.39580    0.33870    1.000
    O6       O        0.15652    0.36105    0.48220    1.000
    C7       C        0.10480    0.47020    0.33450    1.000
    H2       H        0.09300    0.49520    0.43550    1.000
    K1       K        0.21561    0.48232    0.68100    1.000
    O7       O        0.06510    0.60910    0.69450    1.000
    O8       O        0.23450    0.59310    0.94020    1.000
    Ca2      Ca       0.07840    0.30360    0.95990    1.000
    K2       K        0.21640    0.48070    0.95140    1.000
    O9       O        0.00610    0.24650    0.71400    1.000
    O10      O        0.06200    0.61500    0.78200    1.000
    O11      O        0.02540    0.61200    0.05300    1.000
    C8       C        0.06400    0.58400    0.93100    1.000
    C9       C        0.08930    0.50300    0.45100    1.000
    C10      C        0.10200    0.47600    0.29200    1.000
    H3       H        0.09260    0.50300    0.19200    1.000
    C11      C        0.13300    0.40140    0.29900    1.000
    O12      O        0.15150    0.36240    0.15800    1.000
    C12      C        0.15300    0.35550    0.47100    1.000
    O13      O        0.17920    0.28380    0.46300    1.000
    C13      C        0.13650    0.39220    0.61200    1.000
    O14      O        0.15500    0.35940    0.75800    1.000
    C14      C        0.10590    0.46640    0.60300    1.000
    H4       H        0.09620    0.49240    0.70420    1.000
    O15      O        0.06890    0.61250    0.94500    1.000
    O16      O        0.23700    0.59510    0.20300    1.000
    Ca3      Ca       0.42085    0.19658    0.67783    1.000
    O17      O        0.49407    0.25559    0.92370    1.000
    O18      O        0.42510    0.87147    0.04610    1.000
    O19      O        0.47548    0.88815    0.30600    1.000
    C15      C        0.43910    0.91320    0.17830    1.000
    C16      C        0.40970    0.99350    0.17870    1.000
    C17      C        0.39440    0.03140    0.02620    1.000
    H5       H        0.40510    0.00690    0.92390    1.000
    C18      C        0.36340    0.10530    0.02470    1.000
    O20      O        0.34564    0.14217    0.88050    1.000
    C19      C        0.34950    0.14190    0.18150    1.000
    O21      O        0.32154    0.21350    0.18310    1.000
    C20      C        0.36300    0.10420    0.33870    1.000
    O22      O        0.34348    0.13895    0.48220    1.000
    C21      C        0.39520    0.02980    0.33450    1.000
    H6       H        0.40700    0.00480    0.43550    1.000
    K3       K        0.28439    0.01768    0.68100    1.000
    O23      O        0.43490    0.89090    0.69450    1.000
    O24      O        0.26550    0.90690    0.94020    1.000
    Ca4      Ca       0.42160    0.19640    0.95990    1.000
    K4       K        0.28360    0.01930    0.95140    1.000
    O25      O        0.49390    0.25350    0.71400    1.000
    O26      O        0.43800    0.88500    0.78200    1.000
    O27      O        0.47460    0.88800    0.05300    1.000
    C22      C        0.43600    0.91600    0.93100    1.000
    C23      C        0.41070    0.99700    0.45100    1.000
    C24      C        0.39800    0.02400    0.29200    1.000
    H7       H        0.40740    0.99700    0.19200    1.000
    C25      C        0.36700    0.09860    0.29900    1.000
    O28      O        0.34850    0.13760    0.15800    1.000
    C26      C        0.34700    0.14450    0.47100    1.000
    O29      O        0.32080    0.21620    0.46300    1.000
    C27      C        0.36350    0.10780    0.61200    1.000
    O30      O        0.34500    0.14060    0.75800    1.000
    C28      C        0.39410    0.03360    0.60300    1.000
    H8       H        0.40380    0.00760    0.70420    1.000
    O31      O        0.43110    0.88750    0.94500    1.000
    O32      O        0.26300    0.90490    0.20300    1.000
    Ca5      Ca       0.92085    0.80342    0.82217    1.000
    O33      O        0.99407    0.74441    0.57630    1.000
    O34      O        0.92510    0.12853    0.45390    1.000
    O35      O        0.97548    0.11185    0.19400    1.000
    C29      C        0.93910    0.08680    0.32170    1.000
    C30      C        0.90970    0.00650    0.32130    1.000
    C31      C        0.89440    0.96860    0.47380    1.000
    H9       H        0.90510    0.99310    0.57610    1.000
    C32      C        0.86340    0.89470    0.47530    1.000
    O36      O        0.84564    0.85783    0.61950    1.000
    C33      C        0.84950    0.85810    0.31850    1.000
    O37      O        0.82154    0.78650    0.31690    1.000
    C34      C        0.86300    0.89580    0.16130    1.000
    O38      O        0.84348    0.86105    0.01780    1.000
    C35      C        0.89520    0.97020    0.16550    1.000
    H10      H        0.90700    0.99520    0.06450    1.000
    K5       K        0.78439    0.98232    0.81900    1.000
    O39      O        0.93490    0.10910    0.80550    1.000
    O40      O        0.76550    0.09310    0.55980    1.000
    Ca6      Ca       0.92160    0.80360    0.54010    1.000
    K6       K        0.78360    0.98070    0.54860    1.000
    O41      O        0.99390    0.74650    0.78600    1.000
    O42      O        0.93800    0.11500    0.71800    1.000
    O43      O        0.97460    0.11200    0.44700    1.000
    C36      C        0.93600    0.08400    0.56900    1.000
    C37      C        0.91070    0.00300    0.04900    1.000
    C38      C        0.89800    0.97600    0.20800    1.000
    H11      H        0.90740    0.00300    0.30800    1.000
    C39      C        0.86700    0.90140    0.20100    1.000
    O44      O        0.84850    0.86240    0.34200    1.000
    C40      C        0.84700    0.85550    0.02900    1.000
    O45      O        0.82080    0.78380    0.03700    1.000
    C41      C        0.86350    0.89220    0.88800    1.000
    O46      O        0.84500    0.85940    0.74200    1.000
    C42      C        0.89410    0.96640    0.89700    1.000
    H12      H        0.90380    0.99240    0.79580    1.000
    O47      O        0.93110    0.11250    0.55500    1.000
    O48      O        0.76300    0.09510    0.29700    1.000
    Ca7      Ca       0.57915    0.69658    0.82217    1.000
    O49      O        0.50593    0.75559    0.57630    1.000
    O50      O        0.57490    0.37147    0.45390    1.000
    O51      O        0.52452    0.38815    0.19400    1.000
    C43      C        0.56090    0.41320    0.32170    1.000
    C44      C        0.59030    0.49350    0.32130    1.000
    C45      C        0.60560    0.53140    0.47380    1.000
    H13      H        0.59490    0.50690    0.57610    1.000
    C46      C        0.63660    0.60530    0.47530    1.000
    O52      O        0.65436    0.64217    0.61950    1.000
    C47      C        0.65050    0.64190    0.31850    1.000
    O53      O        0.67846    0.71350    0.31690    1.000
    C48      C        0.63700    0.60420    0.16130    1.000
    O54      O        0.65652    0.63895    0.01780    1.000
    C49      C        0.60480    0.52980    0.16550    1.000
    H14      H        0.59300    0.50480    0.06450    1.000
    K7       K        0.71561    0.51768    0.81900    1.000
    O55      O        0.56510    0.39090    0.80550    1.000
    O56      O        0.73450    0.40690    0.55980    1.000
    Ca8      Ca       0.57840    0.69640    0.54010    1.000
    K8       K        0.71640    0.51930    0.54860    1.000
    O57      O        0.50610    0.75350    0.78600    1.000
    O58      O        0.56200    0.38500    0.71800    1.000
    O59      O        0.52540    0.38800    0.44700    1.000
    C50      C        0.56400    0.41600    0.56900    1.000
    C51      C        0.58930    0.49700    0.04900    1.000
    C52      C        0.60200    0.52400    0.20800    1.000
    H15      H        0.59260    0.49700    0.30800    1.000
    C53      C        0.63300    0.59860    0.20100    1.000
    O60      O        0.65150    0.63760    0.34200    1.000
    C54      C        0.65300    0.64450    0.02900    1.000
    O61      O        0.67920    0.71620    0.03700    1.000
    C55      C        0.63650    0.60780    0.88800    1.000
    O62      O        0.65500    0.64060    0.74200    1.000
    C56      C        0.60590    0.53360    0.89700    1.000
    H16      H        0.59620    0.50760    0.79580    1.000
    O63      O        0.56890    0.38750    0.55500    1.000
    O64      O        0.73700    0.40490    0.29700    1.000
    Ca9      Ca       0.92085    0.69658    0.32217    1.000
    O65      O        0.99407    0.75559    0.07630    1.000
    O66      O        0.92510    0.37147    0.95390    1.000
    O67      O        0.97548    0.38815    0.69400    1.000
    C57      C        0.93910    0.41320    0.82170    1.000
    C58      C        0.90970    0.49350    0.82130    1.000
    C59      C        0.89440    0.53140    0.97380    1.000
    H17      H        0.90510    0.50690    0.07610    1.000
    C60      C        0.86340    0.60530    0.97530    1.000
    O68      O        0.84564    0.64217    0.11950    1.000
    C61      C        0.84950    0.64190    0.81850    1.000
    O69      O        0.82154    0.71350    0.81690    1.000
    C62      C        0.86300    0.60420    0.66130    1.000
    O70      O        0.84348    0.63895    0.51780    1.000
    C63      C        0.89520    0.52980    0.66550    1.000
    H18      H        0.90700    0.50480    0.56450    1.000
    K9       K        0.78439    0.51768    0.31900    1.000
    O71      O        0.93490    0.39090    0.30550    1.000
    O72      O        0.76550    0.40690    0.05980    1.000
    Ca10     Ca       0.92160    0.69640    0.04010    1.000
    K10      K        0.78360    0.51930    0.04860    1.000
    O73      O        0.99390    0.75350    0.28600    1.000
    O74      O        0.93800    0.38500    0.21800    1.000
    O75      O        0.97460    0.38800    0.94700    1.000
    C64      C        0.93600    0.41600    0.06900    1.000
    C65      C        0.91070    0.49700    0.54900    1.000
    C66      C        0.89800    0.52400    0.70800    1.000
    H19      H        0.90740    0.49700    0.80800    1.000
    C67      C        0.86700    0.59860    0.70100    1.000
    O76      O        0.84850    0.63760    0.84200    1.000
    C68      C        0.84700    0.64450    0.52900    1.000
    O77      O        0.82080    0.71620    0.53700    1.000
    C69      C        0.86350    0.60780    0.38800    1.000
    O78      O        0.84500    0.64060    0.24200    1.000
    C70      C        0.89410    0.53360    0.39700    1.000
    H20      H        0.90380    0.50760    0.29580    1.000
    O79      O        0.93110    0.38750    0.05500    1.000
    O80      O        0.76300    0.40490    0.79700    1.000
    Ca11     Ca       0.57915    0.80342    0.32217    1.000
    O81      O        0.50593    0.74441    0.07630    1.000
    O82      O        0.57490    0.12853    0.95390    1.000
    O83      O        0.52452    0.11185    0.69400    1.000
    C71      C        0.56090    0.08680    0.82170    1.000
    C72      C        0.59030    0.00650    0.82130    1.000
    C73      C        0.60560    0.96860    0.97380    1.000
    H21      H        0.59490    0.99310    0.07610    1.000
    C74      C        0.63660    0.89470    0.97530    1.000
    O84      O        0.65436    0.85783    0.11950    1.000
    C75      C        0.65050    0.85810    0.81850    1.000
    O85      O        0.67846    0.78650    0.81690    1.000
    C76      C        0.63700    0.89580    0.66130    1.000
    O86      O        0.65652    0.86105    0.51780    1.000
    C77      C        0.60480    0.97020    0.66550    1.000
    H22      H        0.59300    0.99520    0.56450    1.000
    K11      K        0.71561    0.98232    0.31900    1.000
    O87      O        0.56510    0.10910    0.30550    1.000
    O88      O        0.73450    0.09310    0.05980    1.000
    Ca12     Ca       0.57840    0.80360    0.04010    1.000
    K12      K        0.71640    0.98070    0.04860    1.000
    O89      O        0.50610    0.74650    0.28600    1.000
    O90      O        0.56200    0.11500    0.21800    1.000
    O91      O        0.52540    0.11200    0.94700    1.000
    C78      C        0.56400    0.08400    0.06900    1.000
    C79      C        0.58930    0.00300    0.54900    1.000
    C80      C        0.60200    0.97600    0.70800    1.000
    H23      H        0.59260    0.00300    0.80800    1.000
    C81      C        0.63300    0.90140    0.70100    1.000
    O92      O        0.65150    0.86240    0.84200    1.000
    C82      C        0.65300    0.85550    0.52900    1.000
    O93      O        0.67920    0.78380    0.53700    1.000
    C83      C        0.63650    0.89220    0.38800    1.000
    O94      O        0.65500    0.85940    0.24200    1.000
    C84      C        0.60590    0.96640    0.39700    1.000
    H24      H        0.59620    0.99240    0.29580    1.000
    O95      O        0.56890    0.11250    0.05500    1.000
    O96      O        0.73700    0.09510    0.79700    1.000
    Ca13     Ca       0.07915    0.19658    0.17783    1.000
    O97      O        0.00593    0.25559    0.42370    1.000
    O98      O        0.07490    0.87147    0.54610    1.000
    O99      O        0.02452    0.88815    0.80600    1.000
    C85      C        0.06090    0.91320    0.67830    1.000
    C86      C        0.09030    0.99350    0.67870    1.000
    C87      C        0.10560    0.03140    0.52620    1.000
    H25      H        0.09490    0.00690    0.42390    1.000
    C88      C        0.13660    0.10530    0.52470    1.000
    O100     O        0.15436    0.14217    0.38050    1.000
    C89      C        0.15050    0.14190    0.68150    1.000
    O101     O        0.17846    0.21350    0.68310    1.000
    C90      C        0.13700    0.10420    0.83870    1.000
    O102     O        0.15652    0.13895    0.98220    1.000
    C91      C        0.10480    0.02980    0.83450    1.000
    H26      H        0.09300    0.00480    0.93550    1.000
    K13      K        0.21561    0.01768    0.18100    1.000
    O103     O        0.06510    0.89090    0.19450    1.000
    O104     O        0.23450    0.90690    0.44020    1.000
    Ca14     Ca       0.07840    0.19640    0.45990    1.000
    K14      K        0.21640    0.01930    0.45140    1.000
    O105     O        0.00610    0.25350    0.21400    1.000
    O106     O        0.06200    0.88500    0.28200    1.000
    O107     O        0.02540    0.88800    0.55300    1.000
    C92      C        0.06400    0.91600    0.43100    1.000
    C93      C        0.08930    0.99700    0.95100    1.000
    C94      C        0.10200    0.02400    0.79200    1.000
    H27      H        0.09260    0.99700    0.69200    1.000
    C95      C        0.13300    0.09860    0.79900    1.000
    O108     O        0.15150    0.13760    0.65800    1.000
    C96      C        0.15300    0.14450    0.97100    1.000
    O109     O        0.17920    0.21620    0.96300    1.000
    C97      C        0.13650    0.10780    0.11200    1.000
    O110     O        0.15500    0.14060    0.25800    1.000
    C98      C        0.10590    0.03360    0.10300    1.000
    H28      H        0.09620    0.00760    0.20420    1.000
    O111     O        0.06890    0.88750    0.44500    1.000
    O112     O        0.23700    0.90490    0.70300    1.000
    Ca15     Ca       0.42085    0.30342    0.17783    1.000
    O113     O        0.49407    0.24441    0.42370    1.000
    O114     O        0.42510    0.62853    0.54610    1.000
    O115     O        0.47548    0.61185    0.80600    1.000
    C99      C        0.43910    0.58680    0.67830    1.000
    C100     C        0.40970    0.50650    0.67870    1.000
    C101     C        0.39440    0.46860    0.52620    1.000
    H29      H        0.40510    0.49310    0.42390    1.000
    C102     C        0.36340    0.39470    0.52470    1.000
    O116     O        0.34564    0.35783    0.38050    1.000
    C103     C        0.34950    0.35810    0.68150    1.000
    O117     O        0.32154    0.28650    0.68310    1.000
    C104     C        0.36300    0.39580    0.83870    1.000
    O118     O        0.34348    0.36105    0.98220    1.000
    C105     C        0.39520    0.47020    0.83450    1.000
    H30      H        0.40700    0.49520    0.93550    1.000
    K15      K        0.28439    0.48232    0.18100    1.000
    O119     O        0.43490    0.60910    0.19450    1.000
    O120     O        0.26550    0.59310    0.44020    1.000
    Ca16     Ca       0.42160    0.30360    0.45990    1.000
    K16      K        0.28360    0.48070    0.45140    1.000
    O121     O        0.49390    0.24650    0.21400    1.000
    O122     O        0.43800    0.61500    0.28200    1.000
    O123     O        0.47460    0.61200    0.55300    1.000
    C106     C        0.43600    0.58400    0.43100    1.000
    C107     C        0.41070    0.50300    0.95100    1.000
    C108     C        0.39800    0.47600    0.79200    1.000
    H31      H        0.40740    0.50300    0.69200    1.000
    C109     C        0.36700    0.40140    0.79900    1.000
    O124     O        0.34850    0.36240    0.65800    1.000
    C110     C        0.34700    0.35550    0.97100    1.000
    O125     O        0.32080    0.28380    0.96300    1.000
    C111     C        0.36350    0.39220    0.11200    1.000
    O126     O        0.34500    0.35940    0.25800    1.000
    C112     C        0.39410    0.46640    0.10300    1.000
    H32      H        0.40380    0.49240    0.20420    1.000
    O127     O        0.43110    0.61250    0.44500    1.000
    O128     O        0.26300    0.59510    0.70300    1.000
    Ca17     Ca       0.25000    0.25000    0.93210    1.000
    Ca18     Ca       0.25000    0.25000    0.70740    1.000
    Ca19     Ca       0.75000    0.75000    0.56790    1.000
    Ca20     Ca       0.75000    0.75000    0.79260    1.000
    Ca21     Ca       0.75000    0.75000    0.06790    1.000
    Ca22     Ca       0.75000    0.75000    0.29260    1.000
    Ca23     Ca       0.25000    0.25000    0.43210    1.000
    Ca24     Ca       0.25000    0.25000    0.20740    1.000
