# CIF file generated by openbabel 3.1.0, see https://openbabel.org
data_I
_chemical_name_common 'image0'
_cell_length_a 5.0919
_cell_length_b 9.2528
_cell_length_c 12.74
_cell_angle_alpha 73.82
_cell_angle_beta 84.58
_cell_angle_gamma 74.13
_space_group_name_H-M_alt 'P 1'
_space_group_name_Hall 'P 1'
loop_
    _symmetry_equiv_pos_as_xyz
    x,y,z
loop_
    _atom_site_label
    _atom_site_type_symbol
    _atom_site_fract_x
    _atom_site_fract_y
    _atom_site_fract_z
    _atom_site_occupancy
    Al1      Al       0.96210    0.71020    0.15408    1.000
    Al2      Al       0.28480    0.03290    0.40222    1.000
    Al3      Al       0.78270    0.27770    0.12020    1.000
    Al4      Al       0.46180    0.95840    0.86765    1.000
    P1       P        0.87230    0.04910    0.97186    1.000
    P2       P        0.36110    0.10090    0.61810    1.000
    P3       P        0.21010    0.35070    0.23563    1.000
    P4       P        0.53090    0.63780    0.03584    1.000
    P5       P        0.87870    0.94090    0.29806    1.000
    O1       O        0.33810    0.00620    0.53990    1.000
    O2       O        0.41360    0.98460    0.73110    1.000
    O3       O        0.04920    0.92900    0.39570    1.000
    O4       O        0.70070    0.05850    0.87620    1.000
    O5       O        0.65520    0.66240    0.13070    1.000
    O6       O        0.16770    0.04560    0.93160    1.000
    O7       O        0.56960    0.76050    0.92770    1.000
    O8       O        0.08500    0.32730    0.13920    1.000
    O9       O        0.58310    0.95690    0.33850    1.000
    O10      O        0.16380    0.23270    0.34250    1.000
    O11      O        0.51600    0.32860    0.21580    1.000
    O12      O        0.22580    0.65630    0.05860    1.000
    O13      O        0.85200    0.90920    0.06200    1.000
    O14      O        0.90970    0.07940    0.20610    1.000
    O15      O        0.56830    0.19210    0.58490    1.000
    O16      O        0.97880    0.78790    0.26550    1.000
    O17      O        0.08090    0.51170    0.25420    1.000
    O18      O        0.66430    0.47830    0.01520    1.000
    O19      O        0.76230    0.20340    0.00420    1.000
    O20      O        0.07080    0.22040    0.62160    1.000
