# CIF file generated by openbabel 3.1.0, see https://openbabel.org
data_I
_chemical_name_common 'OJIWIO_clean'
_cell_length_a 11.217
_cell_length_b 11.526
_cell_length_c 17.703
_cell_angle_alpha 90
_cell_angle_beta 90
_cell_angle_gamma 106.917
_space_group_name_H-M_alt 'P 1'
_space_group_name_Hall 'P 1'
loop_
    _symmetry_equiv_pos_as_xyz
    x,y,z
loop_
    _atom_site_label
    _atom_site_type_symbol
    _atom_site_fract_x
    _atom_site_fract_y
    _atom_site_fract_z
    _atom_site_occupancy
    Zn1      Zn       0.45895    0.86465    0.99223    1.000
    Zn2      Zn       0.04105    0.13535    0.49223    1.000
    Zn3      Zn       0.54105    0.13535    0.00777    1.000
    Zn4      Zn       0.95895    0.86465    0.50777    1.000
    H1       H        0.64830    0.85890    0.63480    1.000
    H2       H        0.55590    0.84610    0.75380    1.000
    H3       H        0.70360    0.20550    0.78110    1.000
    H4       H        0.80510    0.21870    0.66400    1.000
    H5       H        0.21240    0.70640    0.03540    1.000
    H6       H        0.09720    0.50280    0.03910    1.000
    H7       H        0.38040    0.42430    0.93380    1.000
    H8       H        0.48540    0.62830    0.93050    1.000
    H9       H        0.90260    0.12630    0.84310    1.000
    H10      H        0.20150    0.08110    0.15180    1.000
    H11      H        0.85170    0.14110    0.13480    1.000
    H12      H        0.94410    0.15390    0.25380    1.000
    H13      H        0.79640    0.79450    0.28110    1.000
    H14      H        0.69490    0.78130    0.16400    1.000
    H15      H        0.28760    0.29360    0.53540    1.000
    H16      H        0.40280    0.49720    0.53910    1.000
    H17      H        0.11960    0.57570    0.43380    1.000
    H18      H        0.01460    0.37170    0.43050    1.000
    H19      H        0.59740    0.87370    0.34310    1.000
    H20      H        0.29850    0.91890    0.65180    1.000
    H21      H        0.35170    0.14110    0.36520    1.000
    H22      H        0.44410    0.15390    0.24620    1.000
    H23      H        0.29640    0.79450    0.21890    1.000
    H24      H        0.19490    0.78130    0.33600    1.000
    H25      H        0.78760    0.29360    0.96460    1.000
    H26      H        0.90280    0.49720    0.96090    1.000
    H27      H        0.61960    0.57570    0.06620    1.000
    H28      H        0.51460    0.37170    0.06950    1.000
    H29      H        0.09740    0.87370    0.15690    1.000
    H30      H        0.79850    0.91890    0.84820    1.000
    H31      H        0.14830    0.85890    0.86520    1.000
    H32      H        0.05590    0.84610    0.74620    1.000
    H33      H        0.20360    0.20550    0.71890    1.000
    H34      H        0.30510    0.21870    0.83600    1.000
    H35      H        0.71240    0.70640    0.46460    1.000
    H36      H        0.59720    0.50280    0.46090    1.000
    H37      H        0.88040    0.42430    0.56620    1.000
    H38      H        0.98540    0.62830    0.56950    1.000
    H39      H        0.40260    0.12630    0.65690    1.000
    H40      H        0.70150    0.08110    0.34820    1.000
    C1       C        0.81600    0.04410    0.56650    1.000
    C2       C        0.74070    0.03960    0.63870    1.000
    C3       C        0.66290    0.92860    0.66500    1.000
    C4       C        0.60680    0.92120    0.73630    1.000
    C5       C        0.62580    0.02380    0.78140    1.000
    C6       C        0.69580    0.13460    0.75280    1.000
    C7       C        0.75560    0.14320    0.68190    1.000
    C8       C        0.57650    0.01440    0.86240    1.000
    C9       C        0.24730    0.64820    0.01530    1.000
    C10      C        0.17750    0.52610    0.01790    1.000
    C11      C        0.22820    0.44130    0.98910    1.000
    C12      C        0.34450    0.48060    0.95550    1.000
    C13      C        0.40720    0.60250    0.95430    1.000
    C14      C        0.18900    0.24440    0.05280    1.000
    C15      C        0.11900    0.11560    0.05610    1.000
    C16      C        0.03200    0.06460    0.99880    1.000
    C17      C        0.00330    0.13370    0.93850    1.000
    C18      C        0.06790    0.26670    0.93680    1.000
    C19      C        0.91870    0.07930    0.88310    1.000
    C20      C        0.14330    0.04530    0.11420    1.000
    C21      C        0.68400    0.95590    0.06650    1.000
    C22      C        0.75930    0.96040    0.13870    1.000
    C23      C        0.83710    0.07140    0.16500    1.000
    C24      C        0.89320    0.07880    0.23630    1.000
    C25      C        0.87420    0.97620    0.28140    1.000
    C26      C        0.80420    0.86540    0.25280    1.000
    C27      C        0.74440    0.85680    0.18190    1.000
    C28      C        0.92350    0.98560    0.36240    1.000
    C29      C        0.25270    0.35180    0.51530    1.000
    C30      C        0.32250    0.47390    0.51790    1.000
    C31      C        0.27180    0.55870    0.48910    1.000
    C32      C        0.15550    0.51940    0.45550    1.000
    C33      C        0.09280    0.39750    0.45430    1.000
    C34      C        0.31100    0.75560    0.55280    1.000
    C35      C        0.38100    0.88440    0.55610    1.000
    C36      C        0.46800    0.93540    0.49880    1.000
    C37      C        0.49670    0.86630    0.43850    1.000
    C38      C        0.43210    0.73330    0.43680    1.000
    C39      C        0.58130    0.92070    0.38310    1.000
    C40      C        0.35670    0.95470    0.61420    1.000
    C41      C        0.18400    0.95590    0.43350    1.000
    C42      C        0.25930    0.96040    0.36130    1.000
    C43      C        0.33710    0.07140    0.33500    1.000
    C44      C        0.39320    0.07880    0.26370    1.000
    C45      C        0.37420    0.97620    0.21860    1.000
    C46      C        0.30420    0.86540    0.24720    1.000
    C47      C        0.24440    0.85680    0.31810    1.000
    C48      C        0.42350    0.98560    0.13760    1.000
    C49      C        0.75270    0.35180    0.98470    1.000
    C50      C        0.82250    0.47390    0.98210    1.000
    C51      C        0.77180    0.55870    0.01090    1.000
    C52      C        0.65550    0.51940    0.04450    1.000
    C53      C        0.59280    0.39750    0.04570    1.000
    C54      C        0.81100    0.75560    0.94720    1.000
    C55      C        0.88100    0.88440    0.94390    1.000
    C56      C        0.96800    0.93540    0.00120    1.000
    C57      C        0.99670    0.86630    0.06150    1.000
    C58      C        0.93210    0.73330    0.06320    1.000
    C59      C        0.08130    0.92070    0.11690    1.000
    C60      C        0.85670    0.95470    0.88580    1.000
    C61      C        0.31600    0.04410    0.93350    1.000
    C62      C        0.24070    0.03960    0.86130    1.000
    C63      C        0.16290    0.92860    0.83500    1.000
    C64      C        0.10680    0.92120    0.76370    1.000
    C65      C        0.12580    0.02380    0.71860    1.000
    C66      C        0.19580    0.13460    0.74720    1.000
    C67      C        0.25560    0.14320    0.81810    1.000
    C68      C        0.07650    0.01440    0.63760    1.000
    C69      C        0.74730    0.64820    0.48470    1.000
    C70      C        0.67750    0.52610    0.48210    1.000
    C71      C        0.72820    0.44130    0.51090    1.000
    C72      C        0.84450    0.48060    0.54450    1.000
    C73      C        0.90720    0.60250    0.54570    1.000
    C74      C        0.68900    0.24440    0.44720    1.000
    C75      C        0.61900    0.11560    0.44390    1.000
    C76      C        0.53200    0.06460    0.50120    1.000
    C77      C        0.50330    0.13370    0.56150    1.000
    C78      C        0.56790    0.26670    0.56320    1.000
    C79      C        0.41870    0.07930    0.61690    1.000
    C80      C        0.64330    0.04530    0.38580    1.000
    N1       N        0.36070    0.68560    0.98570    1.000
    N2       N        0.16000    0.31190    0.99200    1.000
    N3       N        0.13930    0.31440    0.48570    1.000
    N4       N        0.34000    0.68810    0.49200    1.000
    N5       N        0.63930    0.31440    0.01430    1.000
    N6       N        0.84000    0.68810    0.00800    1.000
    N7       N        0.86070    0.68560    0.51430    1.000
    N8       N        0.66000    0.31190    0.50800    1.000
    O1       O        0.81750    0.94220    0.53910    1.000
    O2       O        0.87610    0.14640    0.54080    1.000
    O3       O        0.52930    0.90700    0.88750    1.000
    O4       O        0.59090    0.11110    0.89790    1.000
    O5       O        0.27150    0.29800    0.09780    1.000
    O6       O        0.04470    0.33520    0.88900    1.000
    O7       O        0.68250    0.05780    0.03910    1.000
    O8       O        0.62390    0.85360    0.04080    1.000
    O9       O        0.97070    0.09300    0.38750    1.000
    O10      O        0.90910    0.88890    0.39790    1.000
    O11      O        0.22850    0.70200    0.59780    1.000
    O12      O        0.45530    0.66480    0.38900    1.000
    O13      O        0.18250    0.05780    0.46090    1.000
    O14      O        0.12390    0.85360    0.45920    1.000
    O15      O        0.47070    0.09300    0.11250    1.000
    O16      O        0.40910    0.88890    0.10210    1.000
    O17      O        0.72850    0.70200    0.90220    1.000
    O18      O        0.95530    0.66480    0.11100    1.000
    O19      O        0.31750    0.94220    0.96090    1.000
    O20      O        0.37610    0.14640    0.95920    1.000
    O21      O        0.02930    0.90700    0.61250    1.000
    O22      O        0.09090    0.11110    0.60210    1.000
    O23      O        0.77150    0.29800    0.40220    1.000
    O24      O        0.54470    0.33520    0.61100    1.000
