# CIF file generated by openbabel 3.1.0, see https://openbabel.org
data_I
_chemical_name_common 'image0'
_cell_length_a 25.9202
_cell_length_b 25.9202
_cell_length_c 6.9505
_cell_angle_alpha 90
_cell_angle_beta 90
_cell_angle_gamma 120
_space_group_name_H-M_alt 'P 1'
_space_group_name_Hall 'P 1'
loop_
    _symmetry_equiv_pos_as_xyz
    x,y,z
loop_
    _atom_site_label
    _atom_site_type_symbol
    _atom_site_fract_x
    _atom_site_fract_y
    _atom_site_fract_z
    _atom_site_occupancy
    Fe1      Fe       0.38617    0.35147    0.14850    1.000
    O1       O        0.31842    0.29222    0.34750    1.000
    O2       O        0.30258    0.22647    0.59150    1.000
    O3       O        0.35286    0.27109    0.00940    1.000
    C1       C        0.31409    0.24580    0.42330    1.000
    C2       C        0.32761    0.20593    0.28220    1.000
    C3       C        0.34350    0.22139    0.09120    1.000
    C4       C        0.31563    0.15232    0.36050    1.000
    H1       H        0.30630    0.14200    0.50840    1.000
    Fe2      Fe       0.05284    0.68480    0.48183    1.000
    O4       O        0.98509    0.62555    0.68083    1.000
    O5       O        0.96925    0.55980    0.92483    1.000
    O6       O        0.01953    0.60442    0.34273    1.000
    C5       C        0.98076    0.57913    0.75663    1.000
    C6       C        0.99428    0.53926    0.61553    1.000
    C7       C        0.01017    0.55472    0.42453    1.000
    C8       C        0.98230    0.48565    0.69383    1.000
    H2       H        0.97297    0.47533    0.84173    1.000
    Fe3      Fe       0.71950    0.01814    0.81517    1.000
    O7       O        0.65175    0.95889    0.01417    1.000
    O8       O        0.63591    0.89314    0.25817    1.000
    O9       O        0.68619    0.93776    0.67607    1.000
    C9       C        0.64742    0.91247    0.08997    1.000
    C10      C        0.66094    0.87260    0.94887    1.000
    C11      C        0.67683    0.88806    0.75787    1.000
    C12      C        0.64896    0.81899    0.02717    1.000
    H3       H        0.63963    0.80867    0.17507    1.000
    Fe4      Fe       0.64853    0.03470    0.14850    1.000
    O10      O        0.70778    0.02620    0.34750    1.000
    O11      O        0.77353    0.07611    0.59150    1.000
    O12      O        0.72891    0.08177    0.00940    1.000
    C13      C        0.75420    0.06829    0.42330    1.000
    C14      C        0.79407    0.12168    0.28220    1.000
    C15      C        0.77861    0.12211    0.09120    1.000
    C16      C        0.84768    0.16331    0.36050    1.000
    H4       H        0.85800    0.16430    0.50840    1.000
    Fe5      Fe       0.31520    0.36803    0.48183    1.000
    O13      O        0.37445    0.35953    0.68083    1.000
    O14      O        0.44020    0.40944    0.92483    1.000
    O15      O        0.39558    0.41510    0.34273    1.000
    C17      C        0.42087    0.40162    0.75663    1.000
    C18      C        0.46074    0.45501    0.61553    1.000
    C19      C        0.44528    0.45544    0.42453    1.000
    C20      C        0.51435    0.49664    0.69383    1.000
    H5       H        0.52467    0.49763    0.84173    1.000
    Fe6      Fe       0.98186    0.70137    0.81517    1.000
    O16      O        0.04111    0.69287    0.01417    1.000
    O17      O        0.10686    0.74278    0.25817    1.000
    O18      O        0.06224    0.74844    0.67607    1.000
    C21      C        0.08753    0.73496    0.08997    1.000
    C22      C        0.12740    0.78835    0.94887    1.000
    C23      C        0.11194    0.78878    0.75787    1.000
    C24      C        0.18101    0.82998    0.02717    1.000
    H6       H        0.19133    0.83097    0.17507    1.000
    Fe7      Fe       0.96530    0.61383    0.14850    1.000
    O19      O        0.97380    0.68158    0.34750    1.000
    O20      O        0.92389    0.69742    0.59150    1.000
    O21      O        0.91823    0.64714    0.00940    1.000
    C25      C        0.93171    0.68591    0.42330    1.000
    C26      C        0.87832    0.67239    0.28220    1.000
    C27      C        0.87789    0.65650    0.09120    1.000
    C28      C        0.83669    0.68437    0.36050    1.000
    H7       H        0.83570    0.69370    0.50840    1.000
    Fe8      Fe       0.63197    0.94716    0.48183    1.000
    O22      O        0.64047    0.01491    0.68083    1.000
    O23      O        0.59056    0.03075    0.92483    1.000
    O24      O        0.58490    0.98047    0.34273    1.000
    C29      C        0.59838    0.01924    0.75663    1.000
    C30      C        0.54499    0.00572    0.61553    1.000
    C31      C        0.54456    0.98983    0.42453    1.000
    C32      C        0.50336    0.01770    0.69383    1.000
    H8       H        0.50237    0.02703    0.84173    1.000
    Fe9      Fe       0.29863    0.28050    0.81517    1.000
    O25      O        0.30713    0.34825    0.01417    1.000
    O26      O        0.25722    0.36409    0.25817    1.000
    O27      O        0.25156    0.31381    0.67607    1.000
    C33      C        0.26504    0.35258    0.08997    1.000
    C34      C        0.21165    0.33906    0.94887    1.000
    C35      C        0.21122    0.32317    0.75787    1.000
    C36      C        0.17002    0.35104    0.02717    1.000
    H9       H        0.16903    0.36037    0.17507    1.000
    Fe10     Fe       0.61383    0.64853    0.85150    1.000
    O28      O        0.68158    0.70778    0.65250    1.000
    O29      O        0.69742    0.77353    0.40850    1.000
    O30      O        0.64714    0.72891    0.99060    1.000
    C37      C        0.68591    0.75420    0.57670    1.000
    C38      C        0.67239    0.79407    0.71780    1.000
    C39      C        0.65650    0.77861    0.90880    1.000
    C40      C        0.68437    0.84768    0.63950    1.000
    H10      H        0.69370    0.85800    0.49160    1.000
    Fe11     Fe       0.28050    0.98186    0.18483    1.000
    O31      O        0.34825    0.04111    0.98583    1.000
    O32      O        0.36409    0.10686    0.74183    1.000
    O33      O        0.31381    0.06224    0.32393    1.000
    C41      C        0.35258    0.08753    0.91003    1.000
    C42      C        0.33906    0.12740    0.05113    1.000
    C43      C        0.32317    0.11194    0.24213    1.000
    C44      C        0.35104    0.18101    0.97283    1.000
    H11      H        0.36037    0.19133    0.82493    1.000
    Fe12     Fe       0.94716    0.31520    0.51817    1.000
    O34      O        0.01491    0.37445    0.31917    1.000
    O35      O        0.03075    0.44020    0.07517    1.000
    O36      O        0.98047    0.39558    0.65727    1.000
    C45      C        0.01924    0.42087    0.24337    1.000
    C46      C        0.00572    0.46074    0.38447    1.000
    C47      C        0.98983    0.44528    0.57547    1.000
    C48      C        0.01770    0.51435    0.30617    1.000
    H12      H        0.02703    0.52467    0.15827    1.000
    Fe13     Fe       0.35147    0.96530    0.85150    1.000
    O37      O        0.29222    0.97380    0.65250    1.000
    O38      O        0.22647    0.92389    0.40850    1.000
    O39      O        0.27109    0.91823    0.99060    1.000
    C49      C        0.24580    0.93171    0.57670    1.000
    C50      C        0.20593    0.87832    0.71780    1.000
    C51      C        0.22139    0.87789    0.90880    1.000
    C52      C        0.15232    0.83669    0.63950    1.000
    H13      H        0.14200    0.83570    0.49160    1.000
    Fe14     Fe       0.01814    0.29863    0.18483    1.000
    O40      O        0.95889    0.30713    0.98583    1.000
    O41      O        0.89314    0.25722    0.74183    1.000
    O42      O        0.93776    0.25156    0.32393    1.000
    C53      C        0.91247    0.26504    0.91003    1.000
    C54      C        0.87260    0.21165    0.05113    1.000
    C55      C        0.88806    0.21122    0.24213    1.000
    C56      C        0.81899    0.17002    0.97283    1.000
    H14      H        0.80867    0.16903    0.82493    1.000
    Fe15     Fe       0.68480    0.63197    0.51817    1.000
    O43      O        0.62555    0.64047    0.31917    1.000
    O44      O        0.55980    0.59056    0.07517    1.000
    O45      O        0.60442    0.58490    0.65727    1.000
    C57      C        0.57913    0.59838    0.24337    1.000
    C58      C        0.53926    0.54499    0.38447    1.000
    C59      C        0.55472    0.54456    0.57547    1.000
    C60      C        0.48565    0.50336    0.30617    1.000
    H15      H        0.47533    0.50237    0.15827    1.000
    Fe16     Fe       0.03470    0.38617    0.85150    1.000
    O46      O        0.02620    0.31842    0.65250    1.000
    O47      O        0.07611    0.30258    0.40850    1.000
    O48      O        0.08177    0.35286    0.99060    1.000
    C61      C        0.06829    0.31409    0.57670    1.000
    C62      C        0.12168    0.32761    0.71780    1.000
    C63      C        0.12211    0.34350    0.90880    1.000
    C64      C        0.16331    0.31563    0.63950    1.000
    H16      H        0.16430    0.30630    0.49160    1.000
    Fe17     Fe       0.70137    0.71950    0.18483    1.000
    O49      O        0.69287    0.65175    0.98583    1.000
    O50      O        0.74278    0.63591    0.74183    1.000
    O51      O        0.74844    0.68619    0.32393    1.000
    C65      C        0.73496    0.64742    0.91003    1.000
    C66      C        0.78835    0.66094    0.05113    1.000
    C67      C        0.78878    0.67683    0.24213    1.000
    C68      C        0.82998    0.64896    0.97283    1.000
    H17      H        0.83097    0.63963    0.82493    1.000
    Fe18     Fe       0.36803    0.05284    0.51817    1.000
    O52      O        0.35953    0.98509    0.31917    1.000
    O53      O        0.40944    0.96925    0.07517    1.000
    O54      O        0.41510    0.01953    0.65727    1.000
    C69      C        0.40162    0.98076    0.24337    1.000
    C70      C        0.45501    0.99428    0.38447    1.000
    C71      C        0.45544    0.01017    0.57547    1.000
    C72      C        0.49664    0.98230    0.30617    1.000
    H18      H        0.49763    0.97297    0.15827    1.000
