# CIF file generated by openbabel 3.1.0, see https://openbabel.org
data_I
_chemical_name_common 'NELWIL_clean'
_cell_length_a 4.7094
_cell_length_b 11.2824
_cell_length_c 20.2467
_cell_angle_alpha 90
_cell_angle_beta 90
_cell_angle_gamma 98.827
_space_group_name_H-M_alt 'P 1'
_space_group_name_Hall 'P 1'
loop_
    _symmetry_equiv_pos_as_xyz
    x,y,z
loop_
    _atom_site_label
    _atom_site_type_symbol
    _atom_site_fract_x
    _atom_site_fract_y
    _atom_site_fract_z
    _atom_site_occupancy
    Cu1      Cu       0.32420    0.44490    0.66250    1.000
    Cu2      Cu       0.67580    0.05510    0.16250    1.000
    Cu3      Cu       0.67580    0.55510    0.33750    1.000
    Cu4      Cu       0.32420    0.94490    0.83750    1.000
    H1       H        0.28000    0.41700    0.90950    1.000
    H2       H        0.47600    0.50500    0.81130    1.000
    H3       H        0.53900    0.32000    0.55080    1.000
    H4       H        0.32300    0.64500    0.55990    1.000
    H5       H        0.72000    0.08300    0.40950    1.000
    H6       H        0.52400    0.99500    0.31130    1.000
    H7       H        0.46100    0.18000    0.05080    1.000
    H8       H        0.67700    0.85500    0.05990    1.000
    H9       H        0.72000    0.58300    0.09050    1.000
    H10      H        0.52400    0.49500    0.18870    1.000
    H11      H        0.46100    0.68000    0.44920    1.000
    H12      H        0.67700    0.35500    0.44010    1.000
    H13      H        0.28000    0.91700    0.59050    1.000
    H14      H        0.47600    0.00500    0.68870    1.000
    H15      H        0.53900    0.82000    0.94920    1.000
    H16      H        0.32300    0.14500    0.94010    1.000
    C1       C        0.08800    0.27370    0.75300    1.000
    C2       C        0.98300    0.22050    0.81090    1.000
    C3       C        0.24300    0.37300    0.86790    1.000
    C4       C        0.35400    0.42900    0.81110    1.000
    C5       C        0.02000    0.22170    0.68410    1.000
    C6       C        0.78400    0.10520    0.81850    1.000
    C7       C        0.51600    0.39640    0.53100    1.000
    C8       C        0.39200    0.58200    0.53560    1.000
    C9       C        0.91200    0.22630    0.25300    1.000
    C10      C        0.01700    0.27950    0.31090    1.000
    C11      C        0.75700    0.12700    0.36790    1.000
    C12      C        0.64600    0.07100    0.31110    1.000
    C13      C        0.98000    0.27830    0.18410    1.000
    C14      C        0.21600    0.39480    0.31850    1.000
    C15      C        0.48400    0.10360    0.03100    1.000
    C16      C        0.60800    0.91800    0.03560    1.000
    C17      C        0.91200    0.72630    0.24700    1.000
    C18      C        0.01700    0.77950    0.18910    1.000
    C19      C        0.75700    0.62700    0.13210    1.000
    C20      C        0.64600    0.57100    0.18890    1.000
    C21      C        0.98000    0.77830    0.31590    1.000
    C22      C        0.21600    0.89480    0.18150    1.000
    C23      C        0.48400    0.60360    0.46900    1.000
    C24      C        0.60800    0.41800    0.46440    1.000
    C25      C        0.08800    0.77370    0.74700    1.000
    C26      C        0.98300    0.72050    0.68910    1.000
    C27      C        0.24300    0.87300    0.63210    1.000
    C28      C        0.35400    0.92900    0.68890    1.000
    C29      C        0.02000    0.72170    0.81590    1.000
    C30      C        0.78400    0.60520    0.68150    1.000
    C31      C        0.51600    0.89640    0.96900    1.000
    C32      C        0.39200    0.08200    0.96440    1.000
    N1       N        0.26800    0.37740    0.75310    1.000
    N2       N        0.08000    0.26800    0.86800    1.000
    N3       N        0.42600    0.48070    0.56590    1.000
    N4       N        0.73200    0.12260    0.25310    1.000
    N5       N        0.92000    0.23200    0.36800    1.000
    N6       N        0.57400    0.01930    0.06590    1.000
    N7       N        0.73200    0.62260    0.24690    1.000
    N8       N        0.92000    0.73200    0.13200    1.000
    N9       N        0.57400    0.51930    0.43410    1.000
    N10      N        0.26800    0.87740    0.74690    1.000
    N11      N        0.08000    0.76800    0.63200    1.000
    N12      N        0.42600    0.98070    0.93410    1.000
    O1       O        0.14900    0.28160    0.63920    1.000
    O2       O        0.87300    0.12360    0.67860    1.000
    O3       O        0.52500    0.10800    0.80750    1.000
    O4       O        0.88400    0.01360    0.83140    1.000
    O5       O        0.85100    0.21840    0.13920    1.000
    O6       O        0.12700    0.37640    0.17860    1.000
    O7       O        0.47500    0.39200    0.30750    1.000
    O8       O        0.11600    0.48640    0.33140    1.000
    O9       O        0.85100    0.71840    0.36080    1.000
    O10      O        0.12700    0.87640    0.32140    1.000
    O11      O        0.47500    0.89200    0.19250    1.000
    O12      O        0.11600    0.98640    0.16860    1.000
    O13      O        0.14900    0.78160    0.86080    1.000
    O14      O        0.87300    0.62360    0.82140    1.000
    O15      O        0.52500    0.60800    0.69250    1.000
    O16      O        0.88400    0.51360    0.66860    1.000
