# CIF file generated by openbabel 3.1.0, see https://openbabel.org
data_I
_chemical_name_common 'image0'
_cell_length_a 18.0352
_cell_length_b 25.8676
_cell_length_c 18.0584
_cell_angle_alpha 90
_cell_angle_beta 118.861
_cell_angle_gamma 90
_space_group_name_H-M_alt 'P 1'
_space_group_name_Hall 'P 1'
loop_
    _symmetry_equiv_pos_as_xyz
    x,y,z
loop_
    _atom_site_label
    _atom_site_type_symbol
    _atom_site_fract_x
    _atom_site_fract_y
    _atom_site_fract_z
    _atom_site_occupancy
    Mn1      Mn       0.92690    0.08314    0.80158    1.000
    Mn2      Mn       0.89337    0.00004    0.10682    1.000
    Mn3      Mn       0.80174    0.08320    0.92708    1.000
    S1       S        0.53421    0.90386    0.53407    1.000
    S2       S        0.43971    0.82377    0.77180    1.000
    S3       S        0.77240    0.82386    0.44001    1.000
    O1       O        0.91579    0.04786    0.02127    1.000
    O2       O        0.02073    0.04811    0.91508    1.000
    O3       O        0.89050    0.96758    0.89010    1.000
    O4       O        0.62930    0.65311    0.55920    1.000
    O5       O        0.23030    0.88629    0.98130    1.000
    O6       O        0.72040    0.01703    0.90460    1.000
    O7       O        0.83730    0.04624    0.83710    1.000
    O8       O        0.55910    0.65322    0.62900    1.000
    O9       O        0.98190    0.88561    0.23110    1.000
    O10      O        0.90500    0.01695    0.72110    1.000
    O11      O        0.19200    0.94820    0.88770    1.000
    O12      O        0.88720    0.94830    0.19180    1.000
    O13      O        0.79310    0.95812    0.00420    1.000
    O14      O        0.00350    0.95819    0.79250    1.000
    O15      O        0.54040    0.91909    0.46060    1.000
    O16      O        0.46100    0.91918    0.54000    1.000
    O17      O        0.39610    0.83130    0.68120    1.000
    O18      O        0.47020    0.77321    0.80500    1.000
    O19      O        0.68420    0.82970    0.39770    1.000
    O20      O        0.80510    0.77263    0.46980    1.000
    C1       C        0.83570    0.99622    0.83550    1.000
    C2       C        0.76110    0.97305    0.76130    1.000
    C3       C        0.69990    0.00270    0.69990    1.000
    H1       H        0.70530    0.03850    0.70510    1.000
    C4       C        0.63040    0.98249    0.63050    1.000
    H2       H        0.58960    0.00380    0.58970    1.000
    C5       C        0.62380    0.92861    0.62390    1.000
    C6       C        0.68560    0.89773    0.68520    1.000
    H3       H        0.68130    0.86190    0.68040    1.000
    C7       C        0.75230    0.91975    0.75210    1.000
    H4       H        0.79330    0.89860    0.79300    1.000
    C8       C        0.54520    0.83693    0.54520    1.000
    C9       C        0.51370    0.81048    0.59040    1.000
    H5       H        0.48430    0.82820    0.61290    1.000
    C10      C        0.52570    0.75839    0.60240    1.000
    H6       H        0.50260    0.74080    0.63130    1.000
    C11      C        0.57190    0.73137    0.57200    1.000
    C12      C        0.60300    0.75818    0.52620    1.000
    H7       H        0.63270    0.74050    0.50390    1.000
    C13      C        0.59030    0.81079    0.51330    1.000
    H8       H        0.61220    0.82850    0.48330    1.000
    C14      C        0.58780    0.67495    0.58750    1.000
    C15      C        0.73170    0.97360    0.93890    1.000
    C16      C        0.65760    0.93700    0.89570    1.000
    C17      C        0.59240    0.94560    0.81410    1.000
    H9       H        0.59290    0.97560    0.78600    1.000
    C18      C        0.52570    0.91030    0.77300    1.000
    H10      H        0.48340    0.91670    0.71790    1.000
    C19      C        0.52300    0.86700    0.81390    1.000
    C20      C        0.58650    0.85700    0.89440    1.000
    H11      H        0.58370    0.82700    0.92130    1.000
    C21      C        0.65760    0.89150    0.93880    1.000
    H12      H        0.70100    0.88410    0.99290    1.000
    C22      C        0.37580    0.84570    0.81370    1.000
    C23      C        0.32100    0.88460    0.77410    1.000
    H13      H        0.31500    0.89740    0.72330    1.000
    C24      C        0.27360    0.90570    0.80830    1.000
    H14      H        0.23860    0.93400    0.78300    1.000
    C25      C        0.27940    0.88370    0.88130    1.000
    C26      C        0.33090    0.84380    0.91840    1.000
    H15      H        0.33380    0.82900    0.96670    1.000
    C27      C        0.38100    0.82400    0.88460    1.000
    H16      H        0.41730    0.79630    0.91050    1.000
    C28      C        0.22960    0.90790    0.92020    1.000
    C29      C        0.91960    0.90780    0.22880    1.000
    C30      C        0.88190    0.88350    0.27970    1.000
    C31      C        0.81040    0.90450    0.27350    1.000
    H17      H        0.78570    0.93280    0.23820    1.000
    C32      C        0.77330    0.88410    0.31990    1.000
    H18      H        0.72210    0.89710    0.31260    1.000
    C33      C        0.81270    0.84570    0.37470    1.000
    C34      C        0.88450    0.82420    0.38230    1.000
    H19      H        0.91110    0.79740    0.42040    1.000
    C35      C        0.91930    0.84340    0.33080    1.000
    H20      H        0.96700    0.82810    0.33310    1.000
    C36      C        0.81410    0.86730    0.52300    1.000
    C37      C        0.77410    0.91030    0.52650    1.000
    H21      H        0.71900    0.91690    0.48450    1.000
    C38      C        0.81600    0.94510    0.59410    1.000
    H22      H        0.78790    0.97510    0.59510    1.000
    C39      C        0.89650    0.93670    0.65870    1.000
    C40      C        0.94010    0.89200    0.65780    1.000
    H23      H        0.99470    0.88490    0.70060    1.000
    C41      C        0.89500    0.85730    0.58600    1.000
    H24      H        0.92180    0.82730    0.58290    1.000
    C42      C        0.94010    0.97430    0.73210    1.000
    Mn4      Mn       0.57310    0.58314    0.69842    1.000
    Mn5      Mn       0.60663    0.50004    0.39318    1.000
    Mn6      Mn       0.69826    0.58320    0.57292    1.000
    S4       S        0.96579    0.40386    0.96593    1.000
    S5       S        0.06029    0.32377    0.72820    1.000
    S6       S        0.72760    0.32386    0.05999    1.000
    O21      O        0.58421    0.54786    0.47873    1.000
    O22      O        0.47927    0.54811    0.58492    1.000
    O23      O        0.60950    0.46758    0.60990    1.000
    O24      O        0.87070    0.15311    0.94080    1.000
    O25      O        0.26970    0.38629    0.51870    1.000
    O26      O        0.77960    0.51703    0.59540    1.000
    O27      O        0.66270    0.54624    0.66290    1.000
    O28      O        0.94090    0.15322    0.87100    1.000
    O29      O        0.51810    0.38561    0.26890    1.000
    O30      O        0.59500    0.51695    0.77890    1.000
    O31      O        0.30800    0.44820    0.61230    1.000
    O32      O        0.61280    0.44830    0.30820    1.000
    O33      O        0.70690    0.45812    0.49580    1.000
    O34      O        0.49650    0.45819    0.70750    1.000
    O35      O        0.95960    0.41909    0.03940    1.000
    O36      O        0.03900    0.41918    0.96000    1.000
    O37      O        0.10390    0.33130    0.81880    1.000
    O38      O        0.02980    0.27321    0.69500    1.000
    O39      O        0.81580    0.32970    0.10230    1.000
    O40      O        0.69490    0.27263    0.03020    1.000
    C43      C        0.66430    0.49622    0.66450    1.000
    C44      C        0.73890    0.47305    0.73870    1.000
    C45      C        0.80010    0.50270    0.80010    1.000
    H25      H        0.79470    0.53850    0.79490    1.000
    C46      C        0.86960    0.48249    0.86950    1.000
    H26      H        0.91040    0.50380    0.91030    1.000
    C47      C        0.87620    0.42861    0.87610    1.000
    C48      C        0.81440    0.39773    0.81480    1.000
    H27      H        0.81870    0.36190    0.81960    1.000
    C49      C        0.74770    0.41975    0.74790    1.000
    H28      H        0.70670    0.39860    0.70700    1.000
    C50      C        0.95480    0.33693    0.95480    1.000
    C51      C        0.98630    0.31048    0.90960    1.000
    H29      H        0.01570    0.32820    0.88710    1.000
    C52      C        0.97430    0.25839    0.89760    1.000
    H30      H        0.99740    0.24080    0.86870    1.000
    C53      C        0.92810    0.23137    0.92800    1.000
    C54      C        0.89700    0.25818    0.97380    1.000
    H31      H        0.86730    0.24050    0.99610    1.000
    C55      C        0.90970    0.31079    0.98670    1.000
    H32      H        0.88780    0.32850    0.01670    1.000
    C56      C        0.91220    0.17495    0.91250    1.000
    C57      C        0.76830    0.47360    0.56110    1.000
    C58      C        0.84240    0.43700    0.60430    1.000
    C59      C        0.90760    0.44560    0.68590    1.000
    H33      H        0.90710    0.47560    0.71400    1.000
    C60      C        0.97430    0.41030    0.72700    1.000
    H34      H        0.01660    0.41670    0.78210    1.000
    C61      C        0.97700    0.36700    0.68610    1.000
    C62      C        0.91350    0.35700    0.60560    1.000
    H35      H        0.91630    0.32700    0.57870    1.000
    C63      C        0.84240    0.39150    0.56120    1.000
    H36      H        0.79900    0.38410    0.50710    1.000
    C64      C        0.12420    0.34570    0.68630    1.000
    C65      C        0.17900    0.38460    0.72590    1.000
    H37      H        0.18500    0.39740    0.77670    1.000
    C66      C        0.22640    0.40570    0.69170    1.000
    H38      H        0.26140    0.43400    0.71700    1.000
    C67      C        0.22060    0.38370    0.61870    1.000
    C68      C        0.16910    0.34380    0.58160    1.000
    H39      H        0.16620    0.32900    0.53330    1.000
    C69      C        0.11900    0.32400    0.61540    1.000
    H40      H        0.08270    0.29630    0.58950    1.000
    C70      C        0.27040    0.40790    0.57980    1.000
    C71      C        0.58040    0.40780    0.27120    1.000
    C72      C        0.61810    0.38350    0.22030    1.000
    C73      C        0.68960    0.40450    0.22650    1.000
    H41      H        0.71430    0.43280    0.26180    1.000
    C74      C        0.72670    0.38410    0.18010    1.000
    H42      H        0.77790    0.39710    0.18740    1.000
    C75      C        0.68730    0.34570    0.12530    1.000
    C76      C        0.61550    0.32420    0.11770    1.000
    H43      H        0.58890    0.29740    0.07960    1.000
    C77      C        0.58070    0.34340    0.16920    1.000
    H44      H        0.53300    0.32810    0.16690    1.000
    C78      C        0.68590    0.36730    0.97700    1.000
    C79      C        0.72590    0.41030    0.97350    1.000
    H45      H        0.78100    0.41690    0.01550    1.000
    C80      C        0.68400    0.44510    0.90590    1.000
    H46      H        0.71210    0.47510    0.90490    1.000
    C81      C        0.60350    0.43670    0.84130    1.000
    C82      C        0.55990    0.39200    0.84220    1.000
    H47      H        0.50530    0.38490    0.79940    1.000
    C83      C        0.60500    0.35730    0.91400    1.000
    H48      H        0.57820    0.32730    0.91710    1.000
    C84      C        0.55990    0.47430    0.76790    1.000
    Mn7      Mn       0.07310    0.91686    0.19842    1.000
    Mn8      Mn       0.10663    0.99996    0.89318    1.000
    Mn9      Mn       0.19826    0.91680    0.07292    1.000
    S7       S        0.46579    0.09614    0.46593    1.000
    S8       S        0.56029    0.17623    0.22820    1.000
    S9       S        0.22760    0.17614    0.55999    1.000
    O41      O        0.08421    0.95214    0.97873    1.000
    O42      O        0.97927    0.95189    0.08492    1.000
    O43      O        0.10950    0.03242    0.10990    1.000
    O44      O        0.37070    0.34689    0.44080    1.000
    O45      O        0.76970    0.11371    0.01870    1.000
    O46      O        0.27960    0.98297    0.09540    1.000
    O47      O        0.16270    0.95376    0.16290    1.000
    O48      O        0.44090    0.34678    0.37100    1.000
    O49      O        0.01810    0.11439    0.76890    1.000
    O50      O        0.09500    0.98305    0.27890    1.000
    O51      O        0.80800    0.05180    0.11230    1.000
    O52      O        0.11280    0.05170    0.80820    1.000
    O53      O        0.20690    0.04188    0.99580    1.000
    O54      O        0.99650    0.04181    0.20750    1.000
    O55      O        0.45960    0.08091    0.53940    1.000
    O56      O        0.53900    0.08082    0.46000    1.000
    O57      O        0.60390    0.16870    0.31880    1.000
    O58      O        0.52980    0.22679    0.19500    1.000
    O59      O        0.31580    0.17030    0.60230    1.000
    O60      O        0.19490    0.22737    0.53020    1.000
    C85      C        0.16430    0.00378    0.16450    1.000
    C86      C        0.23890    0.02695    0.23870    1.000
    C87      C        0.30010    0.99730    0.30010    1.000
    H49      H        0.29470    0.96150    0.29490    1.000
    C88      C        0.36960    0.01751    0.36950    1.000
    H50      H        0.41040    0.99620    0.41030    1.000
    C89      C        0.37620    0.07139    0.37610    1.000
    C90      C        0.31440    0.10227    0.31480    1.000
    H51      H        0.31870    0.13810    0.31960    1.000
    C91      C        0.24770    0.08025    0.24790    1.000
    H52      H        0.20670    0.10140    0.20700    1.000
    C92      C        0.45480    0.16307    0.45480    1.000
    C93      C        0.48630    0.18952    0.40960    1.000
    H53      H        0.51570    0.17180    0.38710    1.000
    C94      C        0.47430    0.24161    0.39760    1.000
    H54      H        0.49740    0.25920    0.36870    1.000
    C95      C        0.42810    0.26863    0.42800    1.000
    C96      C        0.39700    0.24182    0.47380    1.000
    H55      H        0.36730    0.25950    0.49610    1.000
    C97      C        0.40970    0.18921    0.48670    1.000
    H56      H        0.38780    0.17150    0.51670    1.000
    C98      C        0.41220    0.32505    0.41250    1.000
    C99      C        0.26830    0.02640    0.06110    1.000
    C100     C        0.34240    0.06300    0.10430    1.000
    C101     C        0.40760    0.05440    0.18590    1.000
    H57      H        0.40710    0.02440    0.21400    1.000
    C102     C        0.47430    0.08970    0.22700    1.000
    H58      H        0.51660    0.08330    0.28210    1.000
    C103     C        0.47700    0.13300    0.18610    1.000
    C104     C        0.41350    0.14300    0.10560    1.000
    H59      H        0.41630    0.17300    0.07870    1.000
    C105     C        0.34240    0.10850    0.06120    1.000
    H60      H        0.29900    0.11590    0.00710    1.000
    C106     C        0.62420    0.15430    0.18630    1.000
    C107     C        0.67900    0.11540    0.22590    1.000
    H61      H        0.68500    0.10260    0.27670    1.000
    C108     C        0.72640    0.09430    0.19170    1.000
    H62      H        0.76140    0.06600    0.21700    1.000
    C109     C        0.72060    0.11630    0.11870    1.000
    C110     C        0.66910    0.15620    0.08160    1.000
    H63      H        0.66620    0.17100    0.03330    1.000
    C111     C        0.61900    0.17600    0.11540    1.000
    H64      H        0.58270    0.20370    0.08950    1.000
    C112     C        0.77040    0.09210    0.07980    1.000
    C113     C        0.08040    0.09220    0.77120    1.000
    C114     C        0.11810    0.11650    0.72030    1.000
    C115     C        0.18960    0.09550    0.72650    1.000
    H65      H        0.21430    0.06720    0.76180    1.000
    C116     C        0.22670    0.11590    0.68010    1.000
    H66      H        0.27790    0.10290    0.68740    1.000
    C117     C        0.18730    0.15430    0.62530    1.000
    C118     C        0.11550    0.17580    0.61770    1.000
    H67      H        0.08890    0.20260    0.57960    1.000
    C119     C        0.08070    0.15660    0.66920    1.000
    H68      H        0.03300    0.17190    0.66690    1.000
    C120     C        0.18590    0.13270    0.47700    1.000
    C121     C        0.22590    0.08970    0.47350    1.000
    H69      H        0.28100    0.08310    0.51550    1.000
    C122     C        0.18400    0.05490    0.40590    1.000
    H70      H        0.21210    0.02490    0.40490    1.000
    C123     C        0.10350    0.06330    0.34130    1.000
    C124     C        0.05990    0.10800    0.34220    1.000
    H71      H        0.00530    0.11510    0.29940    1.000
    C125     C        0.10500    0.14270    0.41400    1.000
    H72      H        0.07820    0.17270    0.41710    1.000
    C126     C        0.05990    0.02570    0.26790    1.000
    Mn10     Mn       0.42690    0.41686    0.30158    1.000
    Mn11     Mn       0.39337    0.49996    0.60682    1.000
    Mn12     Mn       0.30174    0.41680    0.42708    1.000
    S10      S        0.03421    0.59614    0.03407    1.000
    S11      S        0.93971    0.67623    0.27180    1.000
    S12      S        0.27240    0.67614    0.94001    1.000
    O61      O        0.41579    0.45214    0.52127    1.000
    O62      O        0.52073    0.45189    0.41508    1.000
    O63      O        0.39050    0.53242    0.39010    1.000
    O64      O        0.12930    0.84689    0.05920    1.000
    O65      O        0.73030    0.61371    0.48130    1.000
    O66      O        0.22040    0.48297    0.40460    1.000
    O67      O        0.33730    0.45376    0.33710    1.000
    O68      O        0.05910    0.84678    0.12900    1.000
    O69      O        0.48190    0.61439    0.73110    1.000
    O70      O        0.40500    0.48305    0.22110    1.000
    O71      O        0.69200    0.55180    0.38770    1.000
    O72      O        0.38720    0.55170    0.69180    1.000
    O73      O        0.29310    0.54188    0.50420    1.000
    O74      O        0.50350    0.54181    0.29250    1.000
    O75      O        0.04040    0.58091    0.96060    1.000
    O76      O        0.96100    0.58082    0.04000    1.000
    O77      O        0.89610    0.66870    0.18120    1.000
    O78      O        0.97020    0.72679    0.30500    1.000
    O79      O        0.18420    0.67030    0.89770    1.000
    O80      O        0.30510    0.72737    0.96980    1.000
    C127     C        0.33570    0.50378    0.33550    1.000
    C128     C        0.26110    0.52695    0.26130    1.000
    C129     C        0.19990    0.49730    0.19990    1.000
    H73      H        0.20530    0.46150    0.20510    1.000
    C130     C        0.13040    0.51751    0.13050    1.000
    H74      H        0.08960    0.49620    0.08970    1.000
    C131     C        0.12380    0.57139    0.12390    1.000
    C132     C        0.18560    0.60227    0.18520    1.000
    H75      H        0.18130    0.63810    0.18040    1.000
    C133     C        0.25230    0.58025    0.25210    1.000
    H76      H        0.29330    0.60140    0.29300    1.000
    C134     C        0.04520    0.66307    0.04520    1.000
    C135     C        0.01370    0.68952    0.09040    1.000
    H77      H        0.98430    0.67180    0.11290    1.000
    C136     C        0.02570    0.74161    0.10240    1.000
    H78      H        0.00260    0.75920    0.13130    1.000
    C137     C        0.07190    0.76863    0.07200    1.000
    C138     C        0.10300    0.74182    0.02620    1.000
    H79      H        0.13270    0.75950    0.00390    1.000
    C139     C        0.09030    0.68921    0.01330    1.000
    H80      H        0.11220    0.67150    0.98330    1.000
    C140     C        0.08780    0.82505    0.08750    1.000
    C141     C        0.23170    0.52640    0.43890    1.000
    C142     C        0.15760    0.56300    0.39570    1.000
    C143     C        0.09240    0.55440    0.31410    1.000
    H81      H        0.09290    0.52440    0.28600    1.000
    C144     C        0.02570    0.58970    0.27300    1.000
    H82      H        0.98340    0.58330    0.21790    1.000
    C145     C        0.02300    0.63300    0.31390    1.000
    C146     C        0.08650    0.64300    0.39440    1.000
    H83      H        0.08370    0.67300    0.42130    1.000
    C147     C        0.15760    0.60850    0.43880    1.000
    H84      H        0.20100    0.61590    0.49290    1.000
    C148     C        0.87580    0.65430    0.31370    1.000
    C149     C        0.82100    0.61540    0.27410    1.000
    H85      H        0.81500    0.60260    0.22330    1.000
    C150     C        0.77360    0.59430    0.30830    1.000
    H86      H        0.73860    0.56600    0.28300    1.000
    C151     C        0.77940    0.61630    0.38130    1.000
    C152     C        0.83090    0.65620    0.41840    1.000
    H87      H        0.83380    0.67100    0.46670    1.000
    C153     C        0.88100    0.67600    0.38460    1.000
    H88      H        0.91730    0.70370    0.41050    1.000
    C154     C        0.72960    0.59210    0.42020    1.000
    C155     C        0.41960    0.59220    0.72880    1.000
    C156     C        0.38190    0.61650    0.77970    1.000
    C157     C        0.31040    0.59550    0.77350    1.000
    H89      H        0.28570    0.56720    0.73820    1.000
    C158     C        0.27330    0.61590    0.81990    1.000
    H90      H        0.22210    0.60290    0.81260    1.000
    C159     C        0.31270    0.65430    0.87470    1.000
    C160     C        0.38450    0.67580    0.88230    1.000
    H91      H        0.41110    0.70260    0.92040    1.000
    C161     C        0.41930    0.65660    0.83080    1.000
    H92      H        0.46700    0.67190    0.83310    1.000
    C162     C        0.31410    0.63270    0.02300    1.000
    C163     C        0.27410    0.58970    0.02650    1.000
    H93      H        0.21900    0.58310    0.98450    1.000
    C164     C        0.31600    0.55490    0.09410    1.000
    H94      H        0.28790    0.52490    0.09510    1.000
    C165     C        0.39650    0.56330    0.15870    1.000
    C166     C        0.44010    0.60800    0.15780    1.000
    H95      H        0.49470    0.61510    0.20060    1.000
    C167     C        0.39500    0.64270    0.08600    1.000
    H96      H        0.42180    0.67270    0.08290    1.000
    C168     C        0.44010    0.52570    0.23210    1.000
    Mn13     Mn       0.00000    0.00000    0.00000    1.000
    Mn14     Mn       0.50000    0.50000    0.50000    1.000
