# CIF file generated by openbabel 3.1.0, see https://openbabel.org
data_I
_chemical_name_common 'LAVTAF_clean'
_cell_length_a 10.33
_cell_length_b 10.33
_cell_length_c 14.51
_cell_angle_alpha 90
_cell_angle_beta 90
_cell_angle_gamma 90
_space_group_name_H-M_alt 'P 1'
_space_group_name_Hall 'P 1'
loop_
    _symmetry_equiv_pos_as_xyz
    x,y,z
loop_
    _atom_site_label
    _atom_site_type_symbol
    _atom_site_fract_x
    _atom_site_fract_y
    _atom_site_fract_z
    _atom_site_occupancy
    Tb1      Tb       0.85298    0.85298    0.87500    1.000
    Tb2      Tb       0.14702    0.14702    0.37500    1.000
    Tb3      Tb       0.14702    0.85298    0.12500    1.000
    Tb4      Tb       0.85298    0.14702    0.62500    1.000
    H1       H        0.92810    0.44130    0.87120    1.000
    H2       H        0.07190    0.55870    0.37120    1.000
    H3       H        0.55870    0.92810    0.12120    1.000
    H4       H        0.44130    0.07190    0.62120    1.000
    H5       H        0.07190    0.44130    0.12880    1.000
    H6       H        0.92810    0.55870    0.62880    1.000
    H7       H        0.44130    0.92810    0.87880    1.000
    H8       H        0.55870    0.07190    0.37880    1.000
    H9       H        0.00000    0.10440    0.00000    1.000
    H10      H        0.00000    0.89560    0.50000    1.000
    H11      H        0.89560    0.00000    0.25000    1.000
    H12      H        0.10440    0.00000    0.75000    1.000
    C1       C        0.95700    0.39620    0.92270    1.000
    C2       C        0.95720    0.26160    0.92230    1.000
    C3       C        0.91440    0.18620    0.83960    1.000
    C4       C        0.04300    0.60380    0.42270    1.000
    C5       C        0.04280    0.73840    0.42230    1.000
    C6       C        0.08560    0.81380    0.33960    1.000
    C7       C        0.60380    0.95700    0.17270    1.000
    C8       C        0.73840    0.95720    0.17230    1.000
    C9       C        0.81380    0.91440    0.08960    1.000
    C10      C        0.39620    0.04300    0.67270    1.000
    C11      C        0.26160    0.04280    0.67230    1.000
    C12      C        0.18620    0.08560    0.58960    1.000
    C13      C        0.04300    0.39620    0.07730    1.000
    C14      C        0.04280    0.26160    0.07770    1.000
    C15      C        0.08560    0.18620    0.16040    1.000
    C16      C        0.95700    0.60380    0.57730    1.000
    C17      C        0.95720    0.73840    0.57770    1.000
    C18      C        0.91440    0.81380    0.66040    1.000
    C19      C        0.39620    0.95700    0.82730    1.000
    C20      C        0.26160    0.95720    0.82770    1.000
    C21      C        0.18620    0.91440    0.91040    1.000
    C22      C        0.60380    0.04300    0.32730    1.000
    C23      C        0.73840    0.04280    0.32770    1.000
    C24      C        0.81380    0.08560    0.41040    1.000
    C25      C        0.00000    0.46400    0.00000    1.000
    C26      C        0.00000    0.60940    0.00000    1.000
    C27      C        0.00000    0.19450    0.00000    1.000
    C28      C        0.00000    0.53600    0.50000    1.000
    C29      C        0.00000    0.39060    0.50000    1.000
    C30      C        0.00000    0.80550    0.50000    1.000
    C31      C        0.53600    0.00000    0.25000    1.000
    C32      C        0.39060    0.00000    0.25000    1.000
    C33      C        0.80550    0.00000    0.25000    1.000
    C34      C        0.46400    0.00000    0.75000    1.000
    C35      C        0.60940    0.00000    0.75000    1.000
    C36      C        0.19450    0.00000    0.75000    1.000
    O1       O        0.90760    0.24400    0.76389    1.000
    O2       O        0.93050    0.66410    0.94120    1.000
    O3       O        0.89100    0.07090    0.84790    1.000
    O4       O        0.09240    0.75600    0.26389    1.000
    O5       O        0.06950    0.33590    0.44120    1.000
    O6       O        0.10900    0.92910    0.34790    1.000
    O7       O        0.75600    0.90760    0.01389    1.000
    O8       O        0.33590    0.93050    0.19120    1.000
    O9       O        0.92910    0.89100    0.09790    1.000
    O10      O        0.24400    0.09240    0.51389    1.000
    O11      O        0.66410    0.06950    0.69120    1.000
    O12      O        0.07090    0.10900    0.59790    1.000
    O13      O        0.09240    0.24400    0.23611    1.000
    O14      O        0.06950    0.66410    0.05880    1.000
    O15      O        0.10900    0.07090    0.15210    1.000
    O16      O        0.90760    0.75600    0.73611    1.000
    O17      O        0.93050    0.33590    0.55880    1.000
    O18      O        0.89100    0.92910    0.65210    1.000
    O19      O        0.24400    0.90760    0.98611    1.000
    O20      O        0.66410    0.93050    0.80880    1.000
    O21      O        0.07090    0.89100    0.90210    1.000
    O22      O        0.75600    0.09240    0.48611    1.000
    O23      O        0.33590    0.06950    0.30880    1.000
    O24      O        0.92910    0.10900    0.40210    1.000
