# CIF file generated by openbabel 3.1.0, see https://openbabel.org
data_I
_chemical_name_common 'image0'
_cell_length_a 13.9666
_cell_length_b 15.9302
_cell_length_c 16.6479
_cell_angle_alpha 90
_cell_angle_beta 90
_cell_angle_gamma 90
_space_group_name_H-M_alt 'P 1'
_space_group_name_Hall 'P 1'
loop_
    _symmetry_equiv_pos_as_xyz
    x,y,z
loop_
    _atom_site_label
    _atom_site_type_symbol
    _atom_site_fract_x
    _atom_site_fract_y
    _atom_site_fract_z
    _atom_site_occupancy
    Ni1      Ni       0.52002    0.68241    0.89366    1.000
    C1       C        0.74270    0.50364    0.84052    1.000
    C2       C        0.78420    0.54460    0.77493    1.000
    H1       H        0.76340    0.59930    0.76050    1.000
    C3       C        0.85560    0.50540    0.73091    1.000
    C4       C        0.88670    0.42561    0.75304    1.000
    H2       H        0.93240    0.39720    0.72070    1.000
    C5       C        0.85140    0.38720    0.82192    1.000
    C6       C        0.77910    0.42668    0.86568    1.000
    H3       H        0.75460    0.40090    0.91290    1.000
    C7       C        0.65680    0.54060    0.88260    1.000
    C8       C        0.90250    0.54632    0.65949    1.000
    C9       C        0.89370    0.30550    0.84950    1.000
    C10      C        0.44970    0.69320    0.02830    1.000
    C11      C        0.41860    0.69760    0.11490    1.000
    H4       H        0.35020    0.71070    0.11750    1.000
    H5       H        0.45510    0.74150    0.14260    1.000
    H6       H        0.43050    0.64340    0.14090    1.000
    O1       O        0.63181    0.50584    0.94717    1.000
    O2       O        0.61705    0.60206    0.84815    1.000
    O3       O        0.90642    0.62584    0.65864    1.000
    O4       O        0.93622    0.49663    0.60851    1.000
    O5       O        0.95606    0.27044    0.80548    1.000
    O6       O        0.86994    0.27449    0.91583    1.000
    O7       O        0.50215    0.63133    0.00461    1.000
    O8       O        0.43062    0.74991    0.97981    1.000
    Ni2      Ni       0.97998    0.31759    0.39366    1.000
    C12      C        0.75730    0.49636    0.34052    1.000
    C13      C        0.71580    0.45540    0.27493    1.000
    H7       H        0.73660    0.40070    0.26050    1.000
    C14      C        0.64440    0.49460    0.23091    1.000
    C15      C        0.61330    0.57439    0.25304    1.000
    H8       H        0.56760    0.60280    0.22070    1.000
    C16      C        0.64860    0.61280    0.32192    1.000
    C17      C        0.72090    0.57332    0.36568    1.000
    H9       H        0.74540    0.59910    0.41290    1.000
    C18      C        0.84320    0.45940    0.38260    1.000
    C19      C        0.59750    0.45368    0.15949    1.000
    C20      C        0.60630    0.69450    0.34950    1.000
    C21      C        0.05030    0.30680    0.52830    1.000
    C22      C        0.08140    0.30240    0.61490    1.000
    H10      H        0.14980    0.28930    0.61750    1.000
    H11      H        0.04490    0.25850    0.64260    1.000
    H12      H        0.06950    0.35660    0.64090    1.000
    O9       O        0.86819    0.49416    0.44717    1.000
    O10      O        0.88295    0.39794    0.34815    1.000
    O11      O        0.59358    0.37416    0.15864    1.000
    O12      O        0.56378    0.50337    0.10851    1.000
    O13      O        0.54394    0.72956    0.30548    1.000
    O14      O        0.63006    0.72551    0.41583    1.000
    O15      O        0.99785    0.36867    0.50461    1.000
    O16      O        0.06938    0.25009    0.47981    1.000
    Ni3      Ni       0.47998    0.18241    0.60634    1.000
    C23      C        0.25730    0.00364    0.65948    1.000
    C24      C        0.21580    0.04460    0.72507    1.000
    H13      H        0.23660    0.09930    0.73950    1.000
    C25      C        0.14440    0.00540    0.76909    1.000
    C26      C        0.11330    0.92561    0.74696    1.000
    H14      H        0.06760    0.89720    0.77930    1.000
    C27      C        0.14860    0.88720    0.67808    1.000
    C28      C        0.22090    0.92668    0.63432    1.000
    H15      H        0.24540    0.90090    0.58710    1.000
    C29      C        0.34320    0.04060    0.61740    1.000
    C30      C        0.09750    0.04632    0.84051    1.000
    C31      C        0.10630    0.80550    0.65050    1.000
    C32      C        0.55030    0.19320    0.47170    1.000
    C33      C        0.58140    0.19760    0.38510    1.000
    H16      H        0.64980    0.21070    0.38250    1.000
    H17      H        0.54490    0.24150    0.35740    1.000
    H18      H        0.56950    0.14340    0.35910    1.000
    O17      O        0.36819    0.00584    0.55283    1.000
    O18      O        0.38295    0.10206    0.65185    1.000
    O19      O        0.09358    0.12584    0.84136    1.000
    O20      O        0.06378    0.99663    0.89149    1.000
    O21      O        0.04394    0.77044    0.69452    1.000
    O22      O        0.13006    0.77449    0.58417    1.000
    O23      O        0.49785    0.13133    0.49539    1.000
    O24      O        0.56938    0.24991    0.52019    1.000
    Ni4      Ni       0.02002    0.81759    0.10634    1.000
    C34      C        0.24270    0.99636    0.15948    1.000
    C35      C        0.28420    0.95540    0.22507    1.000
    H19      H        0.26340    0.90070    0.23950    1.000
    C36      C        0.35560    0.99460    0.26909    1.000
    C37      C        0.38670    0.07439    0.24696    1.000
    H20      H        0.43240    0.10280    0.27930    1.000
    C38      C        0.35140    0.11280    0.17808    1.000
    C39      C        0.27910    0.07332    0.13432    1.000
    H21      H        0.25460    0.09910    0.08710    1.000
    C40      C        0.15680    0.95940    0.11740    1.000
    C41      C        0.40250    0.95368    0.34051    1.000
    C42      C        0.39370    0.19450    0.15050    1.000
    C43      C        0.94970    0.80680    0.97170    1.000
    C44      C        0.91860    0.80240    0.88510    1.000
    H22      H        0.85020    0.78930    0.88250    1.000
    H23      H        0.95510    0.75850    0.85740    1.000
    H24      H        0.93050    0.85660    0.85910    1.000
    O25      O        0.13181    0.99416    0.05283    1.000
    O26      O        0.11705    0.89794    0.15185    1.000
    O27      O        0.40642    0.87416    0.34136    1.000
    O28      O        0.43622    0.00337    0.39149    1.000
    O29      O        0.45606    0.22956    0.19452    1.000
    O30      O        0.36994    0.22551    0.08417    1.000
    O31      O        0.00215    0.86867    0.99539    1.000
    O32      O        0.93062    0.75009    0.02019    1.000
    Ni5      Ni       0.47998    0.31759    0.10634    1.000
    C45      C        0.25730    0.49636    0.15948    1.000
    C46      C        0.21580    0.45540    0.22507    1.000
    H25      H        0.23660    0.40070    0.23950    1.000
    C47      C        0.14440    0.49460    0.26909    1.000
    C48      C        0.11330    0.57439    0.24696    1.000
    H26      H        0.06760    0.60280    0.27930    1.000
    C49      C        0.14860    0.61280    0.17808    1.000
    C50      C        0.22090    0.57332    0.13432    1.000
    H27      H        0.24540    0.59910    0.08710    1.000
    C51      C        0.34320    0.45940    0.11740    1.000
    C52      C        0.09750    0.45368    0.34051    1.000
    C53      C        0.10630    0.69450    0.15050    1.000
    C54      C        0.55030    0.30680    0.97170    1.000
    C55      C        0.58140    0.30240    0.88510    1.000
    H28      H        0.64980    0.28930    0.88250    1.000
    H29      H        0.54490    0.25850    0.85740    1.000
    H30      H        0.56950    0.35660    0.85910    1.000
    O33      O        0.36819    0.49416    0.05283    1.000
    O34      O        0.38295    0.39794    0.15185    1.000
    O35      O        0.09358    0.37416    0.34136    1.000
    O36      O        0.06378    0.50337    0.39149    1.000
    O37      O        0.04394    0.72956    0.19452    1.000
    O38      O        0.13006    0.72551    0.08417    1.000
    O39      O        0.49785    0.36867    0.99539    1.000
    O40      O        0.56938    0.25009    0.02019    1.000
    Ni6      Ni       0.02002    0.68241    0.60634    1.000
    C56      C        0.24270    0.50364    0.65948    1.000
    C57      C        0.28420    0.54460    0.72507    1.000
    H31      H        0.26340    0.59930    0.73950    1.000
    C58      C        0.35560    0.50540    0.76909    1.000
    C59      C        0.38670    0.42561    0.74696    1.000
    H32      H        0.43240    0.39720    0.77930    1.000
    C60      C        0.35140    0.38720    0.67808    1.000
    C61      C        0.27910    0.42668    0.63432    1.000
    H33      H        0.25460    0.40090    0.58710    1.000
    C62      C        0.15680    0.54060    0.61740    1.000
    C63      C        0.40250    0.54632    0.84051    1.000
    C64      C        0.39370    0.30550    0.65050    1.000
    C65      C        0.94970    0.69320    0.47170    1.000
    C66      C        0.91860    0.69760    0.38510    1.000
    H34      H        0.85020    0.71070    0.38250    1.000
    H35      H        0.95510    0.74150    0.35740    1.000
    H36      H        0.93050    0.64340    0.35910    1.000
    O41      O        0.13181    0.50584    0.55283    1.000
    O42      O        0.11705    0.60206    0.65185    1.000
    O43      O        0.40642    0.62584    0.84136    1.000
    O44      O        0.43622    0.49663    0.89149    1.000
    O45      O        0.45606    0.27044    0.69452    1.000
    O46      O        0.36994    0.27449    0.58417    1.000
    O47      O        0.00215    0.63133    0.49539    1.000
    O48      O        0.93062    0.74991    0.52019    1.000
    Ni7      Ni       0.52002    0.81759    0.39366    1.000
    C67      C        0.74270    0.99636    0.34052    1.000
    C68      C        0.78420    0.95540    0.27493    1.000
    H37      H        0.76340    0.90070    0.26050    1.000
    C69      C        0.85560    0.99460    0.23091    1.000
    C70      C        0.88670    0.07439    0.25304    1.000
    H38      H        0.93240    0.10280    0.22070    1.000
    C71      C        0.85140    0.11280    0.32192    1.000
    C72      C        0.77910    0.07332    0.36568    1.000
    H39      H        0.75460    0.09910    0.41290    1.000
    C73      C        0.65680    0.95940    0.38260    1.000
    C74      C        0.90250    0.95368    0.15949    1.000
    C75      C        0.89370    0.19450    0.34950    1.000
    C76      C        0.44970    0.80680    0.52830    1.000
    C77      C        0.41860    0.80240    0.61490    1.000
    H40      H        0.35020    0.78930    0.61750    1.000
    H41      H        0.45510    0.75850    0.64260    1.000
    H42      H        0.43050    0.85660    0.64090    1.000
    O49      O        0.63181    0.99416    0.44717    1.000
    O50      O        0.61705    0.89794    0.34815    1.000
    O51      O        0.90642    0.87416    0.15864    1.000
    O52      O        0.93622    0.00337    0.10851    1.000
    O53      O        0.95606    0.22956    0.30548    1.000
    O54      O        0.86994    0.22551    0.41583    1.000
    O55      O        0.50215    0.86867    0.50461    1.000
    O56      O        0.43062    0.75009    0.47981    1.000
    Ni8      Ni       0.97998    0.18241    0.89366    1.000
    C78      C        0.75730    0.00364    0.84052    1.000
    C79      C        0.71580    0.04460    0.77493    1.000
    H43      H        0.73660    0.09930    0.76050    1.000
    C80      C        0.64440    0.00540    0.73091    1.000
    C81      C        0.61330    0.92561    0.75304    1.000
    H44      H        0.56760    0.89720    0.72070    1.000
    C82      C        0.64860    0.88720    0.82192    1.000
    C83      C        0.72090    0.92668    0.86568    1.000
    H45      H        0.74540    0.90090    0.91290    1.000
    C84      C        0.84320    0.04060    0.88260    1.000
    C85      C        0.59750    0.04632    0.65949    1.000
    C86      C        0.60630    0.80550    0.84950    1.000
    C87      C        0.05030    0.19320    0.02830    1.000
    C88      C        0.08140    0.19760    0.11490    1.000
    H46      H        0.14980    0.21070    0.11750    1.000
    H47      H        0.04490    0.24150    0.14260    1.000
    H48      H        0.06950    0.14340    0.14090    1.000
    O57      O        0.86819    0.00584    0.94717    1.000
    O58      O        0.88295    0.10206    0.84815    1.000
    O59      O        0.59358    0.12584    0.65864    1.000
    O60      O        0.56378    0.99663    0.60851    1.000
    O61      O        0.54394    0.77044    0.80548    1.000
    O62      O        0.63006    0.77449    0.91583    1.000
    O63      O        0.99785    0.13133    0.00461    1.000
    O64      O        0.06938    0.24991    0.97981    1.000
    Ni9      Ni       0.50000    0.50000    0.00000    1.000
    Ni10     Ni       0.00000    0.50000    0.50000    1.000
    Ni11     Ni       0.50000    0.00000    0.50000    1.000
    Ni12     Ni       0.00000    0.00000    0.00000    1.000
