# CIF file generated by openbabel 3.1.0, see https://openbabel.org
data_I
_chemical_name_common 'image0'
_cell_length_a 11.946
_cell_length_b 13.302
_cell_length_c 17.777
_cell_angle_alpha 90
_cell_angle_beta 98.35
_cell_angle_gamma 90
_space_group_name_H-M_alt 'P 1'
_space_group_name_Hall 'P 1'
loop_
    _symmetry_equiv_pos_as_xyz
    x,y,z
loop_
    _atom_site_label
    _atom_site_type_symbol
    _atom_site_fract_x
    _atom_site_fract_y
    _atom_site_fract_z
    _atom_site_occupancy
    Zn1      Zn       0.67246    0.54085    0.20304    1.000
    Cu1      Cu       0.04136    0.67703    0.44284    1.000
    N1       N        0.65390    0.42540    0.13260    1.000
    N2       N        0.56640    0.28950    0.07540    1.000
    N3       N        0.56300    0.52620    0.27670    1.000
    N4       N        0.49740    0.51180    0.38800    1.000
    N5       N        0.82610    0.55360    0.26320    1.000
    N6       N        0.96700    0.60820    0.34940    1.000
    N7       N        0.15930    0.57120    0.45800    1.000
    N8       N        0.33300    0.50800    0.48440    1.000
    N9       N        0.09290    0.72770    0.54740    1.000
    N10      N        0.14330    0.83390    0.64310    1.000
    C1       C        0.57640    0.35420    0.13350    1.000
    H1       H        0.53190    0.34960    0.17210    1.000
    C2       C        0.69710    0.40610    0.06830    1.000
    H2       H        0.75390    0.44270    0.05020    1.000
    C3       C        0.64380    0.32420    0.03410    1.000
    H3       H        0.65890    0.29620    0.98870    1.000
    C4       C        0.58610    0.51530    0.35040    1.000
    H4       H        0.66000    0.51020    0.37510    1.000
    C5       C        0.44920    0.52590    0.26410    1.000
    H5       H        0.40520    0.53180    0.21660    1.000
    C6       C        0.40840    0.51600    0.33020    1.000
    H6       H        0.33230    0.51250    0.33590    1.000
    C7       C        0.85550    0.60910    0.32510    1.000
    H7       H        0.80390    0.64480    0.34910    1.000
    C8       C        0.92420    0.51560    0.24690    1.000
    H8       H        0.93170    0.47410    0.20580    1.000
    C9       C        0.01030    0.54720    0.29960    1.000
    H9       H        0.08610    0.53000    0.30130    1.000
    C10      C        0.26930    0.58930    0.47420    1.000
    H10      H        0.29910    0.65400    0.47800    1.000
    C11      C        0.15140    0.46960    0.45840    1.000
    H11      H        0.08470    0.43270    0.44930    1.000
    C12      C        0.25730    0.43070    0.47430    1.000
    H12      H        0.27520    0.36260    0.47780    1.000
    C13      C        0.10260    0.82260    0.57040    1.000
    H13      H        0.08250    0.87670    0.53800    1.000
    C14      C        0.12980    0.67350    0.61130    1.000
    H14      H        0.13400    0.60370    0.61430    1.000
    C15      C        0.15890    0.73750    0.66880    1.000
    H15      H        0.18550    0.71920    0.71870    1.000
    Zn2      Zn       0.82754    0.04085    0.29696    1.000
    Cu2      Cu       0.45864    0.17703    0.05716    1.000
    N11      N        0.84610    0.92540    0.36740    1.000
    N12      N        0.93360    0.78950    0.42460    1.000
    N13      N        0.93700    0.02620    0.22330    1.000
    N14      N        0.00260    0.01180    0.11200    1.000
    N15      N        0.67390    0.05360    0.23680    1.000
    N16      N        0.53300    0.10820    0.15060    1.000
    N17      N        0.34070    0.07120    0.04200    1.000
    N18      N        0.16700    0.00800    0.01560    1.000
    N19      N        0.40710    0.22770    0.95260    1.000
    N20      N        0.35670    0.33390    0.85690    1.000
    C16      C        0.92360    0.85420    0.36650    1.000
    H16      H        0.96810    0.84960    0.32790    1.000
    C17      C        0.80290    0.90610    0.43170    1.000
    H17      H        0.74610    0.94270    0.44980    1.000
    C18      C        0.85620    0.82420    0.46590    1.000
    H18      H        0.84110    0.79620    0.51130    1.000
    C19      C        0.91390    0.01530    0.14960    1.000
    H19      H        0.84000    0.01020    0.12490    1.000
    C20      C        0.05080    0.02590    0.23590    1.000
    H20      H        0.09480    0.03180    0.28340    1.000
    C21      C        0.09160    0.01600    0.16980    1.000
    H21      H        0.16770    0.01250    0.16410    1.000
    C22      C        0.64450    0.10910    0.17490    1.000
    H22      H        0.69610    0.14480    0.15090    1.000
    C23      C        0.57580    0.01560    0.25310    1.000
    H23      H        0.56830    0.97410    0.29420    1.000
    C24      C        0.48970    0.04720    0.20040    1.000
    H24      H        0.41390    0.03000    0.19870    1.000
    C25      C        0.23070    0.08930    0.02580    1.000
    H25      H        0.20090    0.15400    0.02200    1.000
    C26      C        0.34860    0.96960    0.04160    1.000
    H26      H        0.41530    0.93270    0.05070    1.000
    C27      C        0.24270    0.93070    0.02570    1.000
    H27      H        0.22480    0.86260    0.02220    1.000
    C28      C        0.39740    0.32260    0.92960    1.000
    H28      H        0.41750    0.37670    0.96200    1.000
    C29      C        0.37020    0.17350    0.88870    1.000
    H29      H        0.36600    0.10370    0.88570    1.000
    C30      C        0.34110    0.23750    0.83120    1.000
    H30      H        0.31450    0.21920    0.78130    1.000
    Zn3      Zn       0.32754    0.45915    0.79696    1.000
    Cu3      Cu       0.95864    0.32297    0.55716    1.000
    N21      N        0.34610    0.57460    0.86740    1.000
    N22      N        0.43360    0.71050    0.92460    1.000
    N23      N        0.43700    0.47380    0.72330    1.000
    N24      N        0.50260    0.48820    0.61200    1.000
    N25      N        0.17390    0.44640    0.73680    1.000
    N26      N        0.03300    0.39180    0.65060    1.000
    N27      N        0.84070    0.42880    0.54200    1.000
    N28      N        0.66700    0.49200    0.51560    1.000
    N29      N        0.90710    0.27230    0.45260    1.000
    N30      N        0.85670    0.16610    0.35690    1.000
    C31      C        0.42360    0.64580    0.86650    1.000
    H31      H        0.46810    0.65040    0.82790    1.000
    C32      C        0.30290    0.59390    0.93170    1.000
    H32      H        0.24610    0.55730    0.94980    1.000
    C33      C        0.35620    0.67580    0.96590    1.000
    H33      H        0.34110    0.70380    0.01130    1.000
    C34      C        0.41390    0.48470    0.64960    1.000
    H34      H        0.34000    0.48980    0.62490    1.000
    C35      C        0.55080    0.47410    0.73590    1.000
    H35      H        0.59480    0.46820    0.78340    1.000
    C36      C        0.59160    0.48400    0.66980    1.000
    H36      H        0.66770    0.48750    0.66410    1.000
    C37      C        0.14450    0.39090    0.67490    1.000
    H37      H        0.19610    0.35520    0.65090    1.000
    C38      C        0.07580    0.48440    0.75310    1.000
    H38      H        0.06830    0.52590    0.79420    1.000
    C39      C        0.98970    0.45280    0.70040    1.000
    H39      H        0.91390    0.47000    0.69870    1.000
    C40      C        0.73070    0.41070    0.52580    1.000
    H40      H        0.70090    0.34600    0.52200    1.000
    C41      C        0.84860    0.53040    0.54160    1.000
    H41      H        0.91530    0.56730    0.55070    1.000
    C42      C        0.74270    0.56930    0.52570    1.000
    H42      H        0.72480    0.63740    0.52220    1.000
    C43      C        0.89740    0.17740    0.42960    1.000
    H43      H        0.91750    0.12330    0.46200    1.000
    C44      C        0.87020    0.32650    0.38870    1.000
    H44      H        0.86600    0.39630    0.38570    1.000
    C45      C        0.84110    0.26250    0.33120    1.000
    H45      H        0.81450    0.28080    0.28130    1.000
    Zn4      Zn       0.17246    0.95915    0.70304    1.000
    Cu4      Cu       0.54136    0.82297    0.94284    1.000
    N31      N        0.15390    0.07460    0.63260    1.000
    N32      N        0.06640    0.21050    0.57540    1.000
    N33      N        0.06300    0.97380    0.77670    1.000
    N34      N        0.99740    0.98820    0.88800    1.000
    N35      N        0.32610    0.94640    0.76320    1.000
    N36      N        0.46700    0.89180    0.84940    1.000
    N37      N        0.65930    0.92880    0.95800    1.000
    N38      N        0.83300    0.99200    0.98440    1.000
    N39      N        0.59290    0.77230    0.04740    1.000
    N40      N        0.64330    0.66610    0.14310    1.000
    C46      C        0.07640    0.14580    0.63350    1.000
    H46      H        0.03190    0.15040    0.67210    1.000
    C47      C        0.19710    0.09390    0.56830    1.000
    H47      H        0.25390    0.05730    0.55020    1.000
    C48      C        0.14380    0.17580    0.53410    1.000
    H48      H        0.15890    0.20380    0.48870    1.000
    C49      C        0.08610    0.98470    0.85040    1.000
    H49      H        0.16000    0.98980    0.87510    1.000
    C50      C        0.94920    0.97410    0.76410    1.000
    H50      H        0.90520    0.96820    0.71660    1.000
    C51      C        0.90840    0.98400    0.83020    1.000
    H51      H        0.83230    0.98750    0.83590    1.000
    C52      C        0.35550    0.89090    0.82510    1.000
    H52      H        0.30390    0.85520    0.84910    1.000
    C53      C        0.42420    0.98440    0.74690    1.000
    H53      H        0.43170    0.02590    0.70580    1.000
    C54      C        0.51030    0.95280    0.79960    1.000
    H54      H        0.58610    0.97000    0.80130    1.000
    C55      C        0.76930    0.91070    0.97420    1.000
    H55      H        0.79910    0.84600    0.97800    1.000
    C56      C        0.65140    0.03040    0.95840    1.000
    H56      H        0.58470    0.06730    0.94930    1.000
    C57      C        0.75730    0.06930    0.97430    1.000
    H57      H        0.77520    0.13740    0.97780    1.000
    C58      C        0.60260    0.67740    0.07040    1.000
    H58      H        0.58250    0.62330    0.03800    1.000
    C59      C        0.62980    0.82650    0.11130    1.000
    H59      H        0.63400    0.89630    0.11430    1.000
    C60      C        0.65890    0.76250    0.16880    1.000
    H60      H        0.68550    0.78080    0.21870    1.000
    Cu5      Cu       0.50000    0.50000    0.50000    1.000
    Cu6      Cu       0.00000    0.00000    0.00000    1.000
