# CIF file generated by openbabel 3.1.0, see https://openbabel.org
data_I
_chemical_name_common 'image0'
_cell_length_a 13.8147
_cell_length_b 13.8147
_cell_length_c 19.4911
_cell_angle_alpha 90
_cell_angle_beta 90
_cell_angle_gamma 90
_space_group_name_H-M_alt 'P 1'
_space_group_name_Hall 'P 1'
loop_
    _symmetry_equiv_pos_as_xyz
    x,y,z
loop_
    _atom_site_label
    _atom_site_type_symbol
    _atom_site_fract_x
    _atom_site_fract_y
    _atom_site_fract_z
    _atom_site_occupancy
    Co1      Co       0.17966    0.78445    0.09570    1.000
    N1       N        0.27520    0.76350    0.18289    1.000
    O1       O        0.10049    0.81969    0.00813    1.000
    O2       O        0.30720    0.79430    0.03914    1.000
    N2       N        0.17910    0.63200    0.07313    1.000
    O3       O        0.06110    0.77000    0.16038    1.000
    C1       C        0.25050    0.71380    0.23680    1.000
    C2       C        0.36750    0.79750    0.18240    1.000
    Co2      Co       0.15017    0.95687    0.98836    1.000
    H1       H        0.11350    0.78150    0.97520    1.000
    C3       C        0.33640    0.85070    0.99240    1.000
    C4       C        0.22360    0.59690    0.01810    1.000
    C5       C        0.13100    0.56710    0.10880    1.000
    H2       H        0.18500    0.69370    0.24050    1.000
    C6       C        0.31310    0.68840    0.28890    1.000
    C7       C        0.43510    0.77640    0.23230    1.000
    H3       H        0.38670    0.83810    0.14550    1.000
    O4       O        0.28920    0.91660    0.96476    1.000
    O5       O        0.12350    0.95400    0.88210    1.000
    C8       C        0.43940    0.83480    0.96740    1.000
    H4       H        0.26220    0.64060    0.99220    1.000
    C9       C        0.21840    0.50310    0.99520    1.000
    C10      C        0.12350    0.47150    0.08970    1.000
    H5       H        0.09980    0.58730    0.14980    1.000
    H6       H        0.29030    0.65170    0.32680    1.000
    C11      C        0.40940    0.71650    0.28600    1.000
    H7       H        0.49850    0.80280    0.22980    1.000
    H8       H        0.25100    0.48330    0.95470    1.000
    H9       H        0.08810    0.42790    0.11780    1.000
    C12      C        0.48110    0.68810    0.34050    1.000
    Co3      Co       0.82034    0.21555    0.09570    1.000
    N3       N        0.72480    0.23650    0.18289    1.000
    O6       O        0.89951    0.18031    0.00813    1.000
    O7       O        0.69280    0.20570    0.03914    1.000
    N4       N        0.82090    0.36800    0.07313    1.000
    O8       O        0.93890    0.23000    0.16038    1.000
    C13      C        0.74950    0.28620    0.23680    1.000
    C14      C        0.63250    0.20250    0.18240    1.000
    Co4      Co       0.84983    0.04313    0.98836    1.000
    H10      H        0.88650    0.21850    0.97520    1.000
    C15      C        0.66360    0.14930    0.99240    1.000
    C16      C        0.77640    0.40310    0.01810    1.000
    C17      C        0.86900    0.43290    0.10880    1.000
    H11      H        0.81500    0.30630    0.24050    1.000
    C18      C        0.68690    0.31160    0.28890    1.000
    C19      C        0.56490    0.22360    0.23230    1.000
    H12      H        0.61330    0.16190    0.14550    1.000
    O9       O        0.71080    0.08340    0.96476    1.000
    O10      O        0.87650    0.04600    0.88210    1.000
    C20      C        0.56060    0.16520    0.96740    1.000
    H13      H        0.73780    0.35940    0.99220    1.000
    C21      C        0.78160    0.49690    0.99520    1.000
    C22      C        0.87650    0.52850    0.08970    1.000
    H14      H        0.90020    0.41270    0.14980    1.000
    H15      H        0.70970    0.34830    0.32680    1.000
    C23      C        0.59060    0.28350    0.28600    1.000
    H16      H        0.50150    0.19720    0.22980    1.000
    H17      H        0.74900    0.51670    0.95470    1.000
    H18      H        0.91190    0.57210    0.11780    1.000
    C24      C        0.51890    0.31190    0.34050    1.000
    Co5      Co       0.78445    0.82034    0.90430    1.000
    N5       N        0.76350    0.72480    0.81711    1.000
    O11      O        0.81969    0.89951    0.99187    1.000
    O12      O        0.79430    0.69280    0.96086    1.000
    N6       N        0.63200    0.82090    0.92687    1.000
    O13      O        0.77000    0.93890    0.83962    1.000
    C25      C        0.71380    0.74950    0.76320    1.000
    C26      C        0.79750    0.63250    0.81760    1.000
    Co6      Co       0.95687    0.84983    0.01164    1.000
    H19      H        0.78150    0.88650    0.02480    1.000
    C27      C        0.85070    0.66360    0.00760    1.000
    C28      C        0.59690    0.77640    0.98190    1.000
    C29      C        0.56710    0.86900    0.89120    1.000
    H20      H        0.69370    0.81500    0.75950    1.000
    C30      C        0.68840    0.68690    0.71110    1.000
    C31      C        0.77640    0.56490    0.76770    1.000
    H21      H        0.83810    0.61330    0.85450    1.000
    O14      O        0.91660    0.71080    0.03524    1.000
    O15      O        0.95400    0.87650    0.11790    1.000
    C32      C        0.83480    0.56060    0.03260    1.000
    H22      H        0.64060    0.73780    0.00780    1.000
    C33      C        0.50310    0.78160    0.00480    1.000
    C34      C        0.47150    0.87650    0.91030    1.000
    H23      H        0.58730    0.90020    0.85020    1.000
    H24      H        0.65170    0.70970    0.67320    1.000
    C35      C        0.71650    0.59060    0.71400    1.000
    H25      H        0.80280    0.50150    0.77020    1.000
    H26      H        0.48330    0.74900    0.04530    1.000
    H27      H        0.42790    0.91190    0.88220    1.000
    C36      C        0.68810    0.51890    0.65950    1.000
    Co7      Co       0.21555    0.17966    0.90430    1.000
    N7       N        0.23650    0.27520    0.81711    1.000
    O16      O        0.18031    0.10049    0.99187    1.000
    O17      O        0.20570    0.30720    0.96086    1.000
    N8       N        0.36800    0.17910    0.92687    1.000
    O18      O        0.23000    0.06110    0.83962    1.000
    C37      C        0.28620    0.25050    0.76320    1.000
    C38      C        0.20250    0.36750    0.81760    1.000
    Co8      Co       0.04313    0.15017    0.01164    1.000
    H28      H        0.21850    0.11350    0.02480    1.000
    C39      C        0.14930    0.33640    0.00760    1.000
    C40      C        0.40310    0.22360    0.98190    1.000
    C41      C        0.43290    0.13100    0.89120    1.000
    H29      H        0.30630    0.18500    0.75950    1.000
    C42      C        0.31160    0.31310    0.71110    1.000
    C43      C        0.22360    0.43510    0.76770    1.000
    H30      H        0.16190    0.38670    0.85450    1.000
    O19      O        0.08340    0.28920    0.03524    1.000
    O20      O        0.04600    0.12350    0.11790    1.000
    C44      C        0.16520    0.43940    0.03260    1.000
    H31      H        0.35940    0.26220    0.00780    1.000
    C45      C        0.49690    0.21840    0.00480    1.000
    C46      C        0.52850    0.12350    0.91030    1.000
    H32      H        0.41270    0.09980    0.85020    1.000
    H33      H        0.34830    0.29030    0.67320    1.000
    C47      C        0.28350    0.40940    0.71400    1.000
    H34      H        0.19720    0.49850    0.77020    1.000
    H35      H        0.51670    0.25100    0.04530    1.000
    H36      H        0.57210    0.08810    0.88220    1.000
    C48      C        0.31190    0.48110    0.65950    1.000
    Co9      Co       0.32034    0.28445    0.40430    1.000
    N9       N        0.22480    0.26350    0.31711    1.000
    O21      O        0.39951    0.31969    0.49187    1.000
    O22      O        0.19280    0.29430    0.46086    1.000
    N10      N        0.32090    0.13200    0.42687    1.000
    O23      O        0.43890    0.27000    0.33962    1.000
    C49      C        0.24950    0.21380    0.26320    1.000
    C50      C        0.13250    0.29750    0.31760    1.000
    Co10     Co       0.34983    0.45687    0.51164    1.000
    H37      H        0.38650    0.28150    0.52480    1.000
    C51      C        0.16360    0.35070    0.50760    1.000
    C52      C        0.27640    0.09690    0.48190    1.000
    C53      C        0.36900    0.06710    0.39120    1.000
    H38      H        0.31500    0.19370    0.25950    1.000
    C54      C        0.18690    0.18840    0.21110    1.000
    C55      C        0.06490    0.27640    0.26770    1.000
    H39      H        0.11330    0.33810    0.35450    1.000
    O24      O        0.21080    0.41660    0.53524    1.000
    O25      O        0.37650    0.45400    0.61790    1.000
    C56      C        0.06060    0.33480    0.53260    1.000
    H40      H        0.23780    0.14060    0.50780    1.000
    C57      C        0.28160    0.00310    0.50480    1.000
    C58      C        0.37650    0.97150    0.41030    1.000
    H41      H        0.40020    0.08730    0.35020    1.000
    H42      H        0.20970    0.15170    0.17320    1.000
    C59      C        0.09060    0.21650    0.21400    1.000
    H43      H        0.00150    0.30280    0.27020    1.000
    H44      H        0.24900    0.98330    0.54530    1.000
    H45      H        0.41190    0.92790    0.38220    1.000
    C60      C        0.01890    0.18810    0.15950    1.000
    Co11     Co       0.67966    0.71555    0.40430    1.000
    N11      N        0.77520    0.73650    0.31711    1.000
    O26      O        0.60049    0.68031    0.49187    1.000
    O27      O        0.80720    0.70570    0.46086    1.000
    N12      N        0.67910    0.86800    0.42687    1.000
    O28      O        0.56110    0.73000    0.33962    1.000
    C61      C        0.75050    0.78620    0.26320    1.000
    C62      C        0.86750    0.70250    0.31760    1.000
    Co12     Co       0.65017    0.54313    0.51164    1.000
    H46      H        0.61350    0.71850    0.52480    1.000
    C63      C        0.83640    0.64930    0.50760    1.000
    C64      C        0.72360    0.90310    0.48190    1.000
    C65      C        0.63100    0.93290    0.39120    1.000
    H47      H        0.68500    0.80630    0.25950    1.000
    C66      C        0.81310    0.81160    0.21110    1.000
    C67      C        0.93510    0.72360    0.26770    1.000
    H48      H        0.88670    0.66190    0.35450    1.000
    O29      O        0.78920    0.58340    0.53524    1.000
    O30      O        0.62350    0.54600    0.61790    1.000
    C68      C        0.93940    0.66520    0.53260    1.000
    H49      H        0.76220    0.85940    0.50780    1.000
    C69      C        0.71840    0.99690    0.50480    1.000
    C70      C        0.62350    0.02850    0.41030    1.000
    H50      H        0.59980    0.91270    0.35020    1.000
    H51      H        0.79030    0.84830    0.17320    1.000
    C71      C        0.90940    0.78350    0.21400    1.000
    H52      H        0.99850    0.69720    0.27020    1.000
    H53      H        0.75100    0.01670    0.54530    1.000
    H54      H        0.58810    0.07210    0.38220    1.000
    C72      C        0.98110    0.81190    0.15950    1.000
    Co13     Co       0.71555    0.32034    0.59570    1.000
    N13      N        0.73650    0.22480    0.68289    1.000
    O31      O        0.68031    0.39951    0.50813    1.000
    O32      O        0.70570    0.19280    0.53914    1.000
    N14      N        0.86800    0.32090    0.57313    1.000
    O33      O        0.73000    0.43890    0.66038    1.000
    C73      C        0.78620    0.24950    0.73680    1.000
    C74      C        0.70250    0.13250    0.68240    1.000
    Co14     Co       0.54313    0.34983    0.48836    1.000
    H55      H        0.71850    0.38650    0.47520    1.000
    C75      C        0.64930    0.16360    0.49240    1.000
    C76      C        0.90310    0.27640    0.51810    1.000
    C77      C        0.93290    0.36900    0.60880    1.000
    H56      H        0.80630    0.31500    0.74050    1.000
    C78      C        0.81160    0.18690    0.78890    1.000
    C79      C        0.72360    0.06490    0.73230    1.000
    H57      H        0.66190    0.11330    0.64550    1.000
    O34      O        0.58340    0.21080    0.46476    1.000
    O35      O        0.54600    0.37650    0.38210    1.000
    C80      C        0.66520    0.06060    0.46740    1.000
    H58      H        0.85940    0.23780    0.49220    1.000
    C81      C        0.99690    0.28160    0.49520    1.000
    C82      C        0.02850    0.37650    0.58970    1.000
    H59      H        0.91270    0.40020    0.64980    1.000
    H60      H        0.84830    0.20970    0.82680    1.000
    C83      C        0.78350    0.09060    0.78600    1.000
    H61      H        0.69720    0.00150    0.72980    1.000
    H62      H        0.01670    0.24900    0.45470    1.000
    H63      H        0.07210    0.41190    0.61780    1.000
    C84      C        0.81190    0.01890    0.84050    1.000
    Co15     Co       0.28445    0.67966    0.59570    1.000
    N15      N        0.26350    0.77520    0.68289    1.000
    O36      O        0.31969    0.60049    0.50813    1.000
    O37      O        0.29430    0.80720    0.53914    1.000
    N16      N        0.13200    0.67910    0.57313    1.000
    O38      O        0.27000    0.56110    0.66038    1.000
    C85      C        0.21380    0.75050    0.73680    1.000
    C86      C        0.29750    0.86750    0.68240    1.000
    Co16     Co       0.45687    0.65017    0.48836    1.000
    H64      H        0.28150    0.61350    0.47520    1.000
    C87      C        0.35070    0.83640    0.49240    1.000
    C88      C        0.09690    0.72360    0.51810    1.000
    C89      C        0.06710    0.63100    0.60880    1.000
    H65      H        0.19370    0.68500    0.74050    1.000
    C90      C        0.18840    0.81310    0.78890    1.000
    C91      C        0.27640    0.93510    0.73230    1.000
    H66      H        0.33810    0.88670    0.64550    1.000
    O39      O        0.41660    0.78920    0.46476    1.000
    O40      O        0.45400    0.62350    0.38210    1.000
    C92      C        0.33480    0.93940    0.46740    1.000
    H67      H        0.14060    0.76220    0.49220    1.000
    C93      C        0.00310    0.71840    0.49520    1.000
    C94      C        0.97150    0.62350    0.58970    1.000
    H68      H        0.08730    0.59980    0.64980    1.000
    H69      H        0.15170    0.79030    0.82680    1.000
    C95      C        0.21650    0.90940    0.78600    1.000
    H70      H        0.30280    0.99850    0.72980    1.000
    H71      H        0.98330    0.75100    0.45470    1.000
    H72      H        0.92790    0.58810    0.61780    1.000
    C96      C        0.18810    0.98110    0.84050    1.000
    O41      O        0.00000    0.00000    0.00000    1.000
    O42      O        0.50000    0.50000    0.50000    1.000
