# CIF file generated by openbabel 3.1.0, see https://openbabel.org
data_I
_chemical_name_common 'HETZUC_charged'
_cell_length_a 14.754
_cell_length_b 17.038
_cell_length_c 17.038
_cell_angle_alpha 90
_cell_angle_beta 90
_cell_angle_gamma 90
_space_group_name_H-M_alt 'P 1'
_space_group_name_Hall 'P 1'
loop_
    _symmetry_equiv_pos_as_xyz
    x,y,z
loop_
    _atom_site_label
    _atom_site_type_symbol
    _atom_site_fract_x
    _atom_site_fract_y
    _atom_site_fract_z
    _atom_site_occupancy
    V1       V        0.72944    0.93567    0.92900    1.000
    V2       V        0.58720    0.81604    0.94763    1.000
    V3       V        0.58550    0.03138    0.18784    1.000
    V4       V        0.62687    0.87801    0.11045    1.000
    V5       V        0.72944    0.06433    0.07100    1.000
    V6       V        0.58720    0.18396    0.05237    1.000
    V7       V        0.58550    0.96862    0.81216    1.000
    V8       V        0.62687    0.12199    0.88955    1.000
    V9       V        0.27056    0.92900    0.06433    1.000
    V10      V        0.41280    0.94763    0.18396    1.000
    V11      V        0.41450    0.18784    0.96862    1.000
    V12      V        0.37313    0.11045    0.12199    1.000
    V13      V        0.27056    0.07100    0.93567    1.000
    V14      V        0.41280    0.05237    0.81604    1.000
    V15      V        0.41450    0.81216    0.03138    1.000
    V16      V        0.37313    0.88955    0.87801    1.000
    V17      V        0.22944    0.43567    0.57100    1.000
    V18      V        0.08720    0.31604    0.55237    1.000
    V19      V        0.08550    0.53138    0.31216    1.000
    V20      V        0.12687    0.37801    0.38955    1.000
    V21      V        0.22944    0.56433    0.42900    1.000
    V22      V        0.08720    0.68396    0.44763    1.000
    V23      V        0.08550    0.46862    0.68784    1.000
    V24      V        0.12687    0.62199    0.61045    1.000
    V25      V        0.77056    0.42900    0.43567    1.000
    V26      V        0.91280    0.44763    0.31604    1.000
    V27      V        0.91450    0.68784    0.53138    1.000
    V28      V        0.87313    0.61045    0.37801    1.000
    V29      V        0.77056    0.57100    0.56433    1.000
    V30      V        0.91280    0.55237    0.68396    1.000
    V31      V        0.91450    0.31216    0.46862    1.000
    V32      V        0.87313    0.38955    0.62199    1.000
    Co1      Co       0.75000    0.74500    0.24500    1.000
    Co2      Co       0.75000    0.25500    0.75500    1.000
    Co3      Co       0.25000    0.24500    0.25500    1.000
    Co4      Co       0.25000    0.75500    0.74500    1.000
    H1       H        0.75910    0.91960    0.24340    1.000
    H2       H        0.85640    0.02610    0.25250    1.000
    H3       H        0.05000    0.87630    0.32760    1.000
    H4       H        0.94280    0.77340    0.30880    1.000
    H5       H        0.05290    0.21430    0.31870    1.000
    H6       H        0.94830    0.12140    0.31740    1.000
    H7       H        0.14540    0.96400    0.26750    1.000
    H8       H        0.24350    0.06990    0.25670    1.000
    H9       H        0.75910    0.08040    0.75660    1.000
    H10      H        0.85640    0.97390    0.74750    1.000
    H11      H        0.05000    0.12370    0.67240    1.000
    H12      H        0.94280    0.22660    0.69120    1.000
    H13      H        0.05290    0.78570    0.68130    1.000
    H14      H        0.94830    0.87860    0.68260    1.000
    H15      H        0.14540    0.03600    0.73250    1.000
    H16      H        0.24350    0.93010    0.74330    1.000
    H17      H        0.24090    0.24340    0.08040    1.000
    H18      H        0.14360    0.25250    0.97390    1.000
    H19      H        0.95000    0.32760    0.12370    1.000
    H20      H        0.05720    0.30880    0.22660    1.000
    H21      H        0.94710    0.31870    0.78570    1.000
    H22      H        0.05170    0.31740    0.87860    1.000
    H23      H        0.85460    0.26750    0.03600    1.000
    H24      H        0.75650    0.25670    0.93010    1.000
    H25      H        0.24090    0.75660    0.91960    1.000
    H26      H        0.14360    0.74750    0.02610    1.000
    H27      H        0.95000    0.67240    0.87630    1.000
    H28      H        0.05720    0.69120    0.77340    1.000
    H29      H        0.94710    0.68130    0.21430    1.000
    H30      H        0.05170    0.68260    0.12140    1.000
    H31      H        0.85460    0.73250    0.96400    1.000
    H32      H        0.75650    0.74330    0.06990    1.000
    H33      H        0.25910    0.41960    0.25660    1.000
    H34      H        0.35640    0.52610    0.24750    1.000
    H35      H        0.55000    0.37630    0.17240    1.000
    H36      H        0.44280    0.27340    0.19120    1.000
    H37      H        0.55290    0.71430    0.18130    1.000
    H38      H        0.44830    0.62140    0.18260    1.000
    H39      H        0.64540    0.46400    0.23250    1.000
    H40      H        0.74350    0.56990    0.24330    1.000
    H41      H        0.25910    0.58040    0.74340    1.000
    H42      H        0.35640    0.47390    0.75250    1.000
    H43      H        0.55000    0.62370    0.82760    1.000
    H44      H        0.44280    0.72660    0.80880    1.000
    H45      H        0.55290    0.28570    0.81870    1.000
    H46      H        0.44830    0.37860    0.81740    1.000
    H47      H        0.64540    0.53600    0.76750    1.000
    H48      H        0.74350    0.43010    0.75670    1.000
    H49      H        0.74090    0.74340    0.41960    1.000
    H50      H        0.64360    0.75250    0.52610    1.000
    H51      H        0.45000    0.82760    0.37630    1.000
    H52      H        0.55720    0.80880    0.27340    1.000
    H53      H        0.44710    0.81870    0.71430    1.000
    H54      H        0.55170    0.81740    0.62140    1.000
    H55      H        0.35460    0.76750    0.46400    1.000
    H56      H        0.25650    0.75670    0.56990    1.000
    H57      H        0.74090    0.25660    0.58040    1.000
    H58      H        0.64360    0.24750    0.47390    1.000
    H59      H        0.45000    0.17240    0.62370    1.000
    H60      H        0.55720    0.19120    0.72660    1.000
    H61      H        0.44710    0.18130    0.28570    1.000
    H62      H        0.55170    0.18260    0.37860    1.000
    H63      H        0.35460    0.23250    0.53600    1.000
    H64      H        0.25650    0.24330    0.43010    1.000
    C1       C        0.81800    0.91120    0.26100    1.000
    C2       C        0.87670    0.97600    0.26520    1.000
    C3       C        0.96340    0.96380    0.28790    1.000
    C4       C        0.99190    0.88650    0.30910    1.000
    C5       C        0.92510    0.82510    0.30020    1.000
    C6       C        0.07060    0.16360    0.30530    1.000
    C7       C        0.00820    0.10790    0.30680    1.000
    C8       C        0.03000    0.02860    0.29290    1.000
    C9       C        0.12420    0.01470    0.27550    1.000
    C10      C        0.18360    0.07910    0.27080    1.000
    C11      C        0.81800    0.08880    0.73900    1.000
    C12      C        0.87670    0.02400    0.73480    1.000
    C13      C        0.96340    0.03620    0.71210    1.000
    C14      C        0.99190    0.11350    0.69090    1.000
    C15      C        0.92510    0.17490    0.69980    1.000
    C16      C        0.07060    0.83640    0.69470    1.000
    C17      C        0.00820    0.89210    0.69320    1.000
    C18      C        0.03000    0.97140    0.70710    1.000
    C19      C        0.12420    0.98530    0.72450    1.000
    C20      C        0.18360    0.92090    0.72920    1.000
    C21      C        0.18200    0.26100    0.08880    1.000
    C22      C        0.12330    0.26520    0.02400    1.000
    C23      C        0.03660    0.28790    0.03620    1.000
    C24      C        0.00810    0.30910    0.11350    1.000
    C25      C        0.07490    0.30020    0.17490    1.000
    C26      C        0.92940    0.30530    0.83640    1.000
    C27      C        0.99180    0.30680    0.89210    1.000
    C28      C        0.97000    0.29290    0.97140    1.000
    C29      C        0.87580    0.27550    0.98530    1.000
    C30      C        0.81640    0.27080    0.92090    1.000
    C31      C        0.18200    0.73900    0.91120    1.000
    C32      C        0.12330    0.73480    0.97600    1.000
    C33      C        0.03660    0.71210    0.96380    1.000
    C34      C        0.00810    0.69090    0.88650    1.000
    C35      C        0.07490    0.69980    0.82510    1.000
    C36      C        0.92940    0.69470    0.16360    1.000
    C37      C        0.99180    0.69320    0.10790    1.000
    C38      C        0.97000    0.70710    0.02860    1.000
    C39      C        0.87580    0.72450    0.01470    1.000
    C40      C        0.81640    0.72920    0.07910    1.000
    C41      C        0.31800    0.41120    0.23900    1.000
    C42      C        0.37670    0.47600    0.23480    1.000
    C43      C        0.46340    0.46380    0.21210    1.000
    C44      C        0.49190    0.38650    0.19090    1.000
    C45      C        0.42510    0.32510    0.19980    1.000
    C46      C        0.57060    0.66360    0.19470    1.000
    C47      C        0.50820    0.60790    0.19320    1.000
    C48      C        0.53000    0.52860    0.20710    1.000
    C49      C        0.62420    0.51470    0.22450    1.000
    C50      C        0.68360    0.57910    0.22920    1.000
    C51      C        0.31800    0.58880    0.76100    1.000
    C52      C        0.37670    0.52400    0.76520    1.000
    C53      C        0.46340    0.53620    0.78790    1.000
    C54      C        0.49190    0.61350    0.80910    1.000
    C55      C        0.42510    0.67490    0.80020    1.000
    C56      C        0.57060    0.33640    0.80530    1.000
    C57      C        0.50820    0.39210    0.80680    1.000
    C58      C        0.53000    0.47140    0.79290    1.000
    C59      C        0.62420    0.48530    0.77550    1.000
    C60      C        0.68360    0.42090    0.77080    1.000
    C61      C        0.68200    0.76100    0.41120    1.000
    C62      C        0.62330    0.76520    0.47600    1.000
    C63      C        0.53660    0.78790    0.46380    1.000
    C64      C        0.50810    0.80910    0.38650    1.000
    C65      C        0.57490    0.80020    0.32510    1.000
    C66      C        0.42940    0.80530    0.66360    1.000
    C67      C        0.49180    0.80680    0.60790    1.000
    C68      C        0.47000    0.79290    0.52860    1.000
    C69      C        0.37580    0.77550    0.51470    1.000
    C70      C        0.31640    0.77080    0.57910    1.000
    C71      C        0.68200    0.23900    0.58880    1.000
    C72      C        0.62330    0.23480    0.52400    1.000
    C73      C        0.53660    0.21210    0.53620    1.000
    C74      C        0.50810    0.19090    0.61350    1.000
    C75      C        0.57490    0.19980    0.67490    1.000
    C76      C        0.42940    0.19470    0.33640    1.000
    C77      C        0.49180    0.19320    0.39210    1.000
    C78      C        0.47000    0.20710    0.47140    1.000
    C79      C        0.37580    0.22450    0.48530    1.000
    C80      C        0.31640    0.22920    0.42090    1.000
    N1       N        0.84140    0.83890    0.28080    1.000
    N2       N        0.15840    0.15180    0.28550    1.000
    N3       N        0.84140    0.16110    0.71920    1.000
    N4       N        0.15840    0.84820    0.71450    1.000
    N5       N        0.15860    0.28080    0.16110    1.000
    N6       N        0.84160    0.28550    0.84820    1.000
    N7       N        0.15860    0.71920    0.83890    1.000
    N8       N        0.84160    0.71450    0.15180    1.000
    N9       N        0.34140    0.33890    0.21920    1.000
    N10      N        0.65840    0.65180    0.21450    1.000
    N11      N        0.34140    0.66110    0.78080    1.000
    N12      N        0.65840    0.34820    0.78550    1.000
    N13      N        0.65860    0.78080    0.33890    1.000
    N14      N        0.34160    0.78550    0.65180    1.000
    N15      N        0.65860    0.21920    0.66110    1.000
    N16      N        0.34160    0.21450    0.34820    1.000
    O1       O        0.62100    0.88050    0.86440    1.000
    O2       O        0.61970    0.04000    0.27630    1.000
    O3       O        0.68160    0.87130    0.00840    1.000
    O4       O        0.67800    0.97780    0.12710    1.000
    O5       O        0.62400    0.73040    0.92610    1.000
    O6       O        0.53840    0.81400    0.05850    1.000
    O7       O        0.81710    0.90000    0.88390    1.000
    O8       O        0.53810    0.92430    0.17580    1.000
    O9       O        0.68190    0.81800    0.16780    1.000
    O10      O        0.62100    0.11950    0.13560    1.000
    O11      O        0.61970    0.96000    0.72370    1.000
    O12      O        0.68160    0.12870    0.99160    1.000
    O13      O        0.67800    0.02220    0.87290    1.000
    O14      O        0.62400    0.26960    0.07390    1.000
    O15      O        0.53840    0.18600    0.94150    1.000
    O16      O        0.81710    0.10000    0.11610    1.000
    O17      O        0.53810    0.07570    0.82420    1.000
    O18      O        0.68190    0.18200    0.83220    1.000
    O19      O        0.37900    0.86440    0.11950    1.000
    O20      O        0.38030    0.27630    0.96000    1.000
    O21      O        0.31840    0.00840    0.12870    1.000
    O22      O        0.32200    0.12710    0.02220    1.000
    O23      O        0.37600    0.92610    0.26960    1.000
    O24      O        0.46160    0.05850    0.18600    1.000
    O25      O        0.18290    0.88390    0.10000    1.000
    O26      O        0.46190    0.17580    0.07570    1.000
    O27      O        0.31810    0.16780    0.18200    1.000
    O28      O        0.37900    0.13560    0.88050    1.000
    O29      O        0.38030    0.72370    0.04000    1.000
    O30      O        0.31840    0.99160    0.87130    1.000
    O31      O        0.32200    0.87290    0.97780    1.000
    O32      O        0.37600    0.07390    0.73040    1.000
    O33      O        0.46160    0.94150    0.81400    1.000
    O34      O        0.18290    0.11610    0.90000    1.000
    O35      O        0.46190    0.82420    0.92430    1.000
    O36      O        0.31810    0.83220    0.81800    1.000
    O37      O        0.12100    0.38050    0.63560    1.000
    O38      O        0.11970    0.54000    0.22370    1.000
    O39      O        0.18160    0.37130    0.49160    1.000
    O40      O        0.17800    0.47780    0.37290    1.000
    O41      O        0.12400    0.23040    0.57390    1.000
    O42      O        0.03840    0.31400    0.44150    1.000
    O43      O        0.31710    0.40000    0.61610    1.000
    O44      O        0.03810    0.42430    0.32420    1.000
    O45      O        0.18190    0.31800    0.33220    1.000
    O46      O        0.12100    0.61950    0.36440    1.000
    O47      O        0.11970    0.46000    0.77630    1.000
    O48      O        0.18160    0.62870    0.50840    1.000
    O49      O        0.17800    0.52220    0.62710    1.000
    O50      O        0.12400    0.76960    0.42610    1.000
    O51      O        0.03840    0.68600    0.55850    1.000
    O52      O        0.31710    0.60000    0.38390    1.000
    O53      O        0.03810    0.57570    0.67580    1.000
    O54      O        0.18190    0.68200    0.66780    1.000
    O55      O        0.87900    0.36440    0.38050    1.000
    O56      O        0.88030    0.77630    0.54000    1.000
    O57      O        0.81840    0.50840    0.37130    1.000
    O58      O        0.82200    0.62710    0.47780    1.000
    O59      O        0.87600    0.42610    0.23040    1.000
    O60      O        0.96160    0.55850    0.31400    1.000
    O61      O        0.68290    0.38390    0.40000    1.000
    O62      O        0.96190    0.67580    0.42430    1.000
    O63      O        0.81810    0.66780    0.31800    1.000
    O64      O        0.87900    0.63560    0.61950    1.000
    O65      O        0.88030    0.22370    0.46000    1.000
    O66      O        0.81840    0.49160    0.62870    1.000
    O67      O        0.82200    0.37290    0.52220    1.000
    O68      O        0.87600    0.57390    0.76960    1.000
    O69      O        0.96160    0.44150    0.68600    1.000
    O70      O        0.68290    0.61610    0.60000    1.000
    O71      O        0.96190    0.32420    0.57570    1.000
    O72      O        0.81810    0.33220    0.68200    1.000
    O73      O        0.78760    0.00000    0.00000    1.000
    O74      O        0.21240    0.00000    0.00000    1.000
    O75      O        0.28760    0.50000    0.50000    1.000
    O76      O        0.71240    0.50000    0.50000    1.000
    Cl1      Cl       0.00000    0.50000    0.50000    1.000
    Cl2      Cl       0.50000    0.00000    0.00000    1.000
