# CIF file generated by openbabel 3.1.0, see https://openbabel.org
data_I
_chemical_name_common 'image0'
_cell_length_a 8.0112
_cell_length_b 19.4392
_cell_length_c 8.9648
_cell_angle_alpha 90
_cell_angle_beta 93.382
_cell_angle_gamma 90
_space_group_name_H-M_alt 'P 1'
_space_group_name_Hall 'P 1'
loop_
    _symmetry_equiv_pos_as_xyz
    x,y,z
loop_
    _atom_site_label
    _atom_site_type_symbol
    _atom_site_fract_x
    _atom_site_fract_y
    _atom_site_fract_z
    _atom_site_occupancy
    C1       C        0.69080    0.99914    0.78550    1.000
    C2       C        0.80930    0.99551    0.57140    1.000
    C3       C        0.42370    0.36960    0.64870    1.000
    C4       C        0.15140    0.36417    0.63800    1.000
    C5       C        0.07760    0.12564    0.83080    1.000
    C6       C        0.34750    0.13674    0.86540    1.000
    N1       N        0.85270    0.99803    0.81280    1.000
    N2       N        0.92840    0.99556    0.67560    1.000
    N3       N        0.65760    0.99774    0.63450    1.000
    N4       N        0.49760    0.99951    0.56900    1.000
    N5       N        0.13340    0.07309    0.90880    1.000
    N6       N        0.30700    0.07955    0.92940    1.000
    N7       N        0.20780    0.16702    0.80040    1.000
    N8       N        0.18340    0.23147    0.73580    1.000
    N9       N        0.36540    0.42559    0.58530    1.000
    N10      N        0.19060    0.42259    0.57960    1.000
    N11      N        0.29390    0.32858    0.68140    1.000
    N12      N        0.31680    0.26386    0.74420    1.000
    H1       H        0.61200    0.00100    0.85600    1.000
    H2       H        0.83000    0.99420    0.47200    1.000
    H3       H        0.53400    0.35800    0.66800    1.000
    H4       H        0.04300    0.34680    0.65000    1.000
    H5       H        0.97300    0.13640    0.80200    1.000
    H6       H        0.46000    0.15420    0.86000    1.000
    C7       C        0.80920    0.49914    0.71450    1.000
    C8       C        0.69070    0.49551    0.92860    1.000
    C9       C        0.07630    0.86960    0.85130    1.000
    C10      C        0.34860    0.86417    0.86200    1.000
    C11      C        0.42240    0.62564    0.66920    1.000
    C12      C        0.15250    0.63674    0.63460    1.000
    N13      N        0.64730    0.49803    0.68720    1.000
    N14      N        0.57160    0.49556    0.82440    1.000
    N15      N        0.84240    0.49774    0.86550    1.000
    N16      N        0.00240    0.49951    0.93100    1.000
    N17      N        0.36660    0.57309    0.59120    1.000
    N18      N        0.19300    0.57955    0.57060    1.000
    N19      N        0.29220    0.66702    0.69960    1.000
    N20      N        0.31660    0.73147    0.76420    1.000
    N21      N        0.13460    0.92559    0.91470    1.000
    N22      N        0.30940    0.92259    0.92040    1.000
    N23      N        0.20610    0.82858    0.81860    1.000
    N24      N        0.18320    0.76386    0.75580    1.000
    H7       H        0.88800    0.50100    0.64400    1.000
    H8       H        0.67000    0.49420    0.02800    1.000
    H9       H        0.96600    0.85800    0.83200    1.000
    H10      H        0.45700    0.84680    0.85000    1.000
    H11      H        0.52700    0.63640    0.69800    1.000
    H12      H        0.04000    0.65420    0.64000    1.000
    C13      C        0.30920    0.00086    0.21450    1.000
    C14      C        0.19070    0.00449    0.42860    1.000
    C15      C        0.57630    0.63040    0.35130    1.000
    C16      C        0.84860    0.63583    0.36200    1.000
    C17      C        0.92240    0.87436    0.16920    1.000
    C18      C        0.65250    0.86326    0.13460    1.000
    N25      N        0.14730    0.00197    0.18720    1.000
    N26      N        0.07160    0.00444    0.32440    1.000
    N27      N        0.34240    0.00226    0.36550    1.000
    N28      N        0.50240    0.00049    0.43100    1.000
    N29      N        0.86660    0.92691    0.09120    1.000
    N30      N        0.69300    0.92045    0.07060    1.000
    N31      N        0.79220    0.83298    0.19960    1.000
    N32      N        0.81660    0.76853    0.26420    1.000
    N33      N        0.63460    0.57441    0.41470    1.000
    N34      N        0.80940    0.57741    0.42040    1.000
    N35      N        0.70610    0.67142    0.31860    1.000
    N36      N        0.68320    0.73614    0.25580    1.000
    H13      H        0.38800    0.99900    0.14400    1.000
    H14      H        0.17000    0.00580    0.52800    1.000
    H15      H        0.46600    0.64200    0.33200    1.000
    H16      H        0.95700    0.65320    0.35000    1.000
    H17      H        0.02700    0.86360    0.19800    1.000
    H18      H        0.54000    0.84580    0.14000    1.000
    C19      C        0.19080    0.50086    0.28550    1.000
    C20      C        0.30930    0.50449    0.07140    1.000
    C21      C        0.92370    0.13040    0.14870    1.000
    C22      C        0.65140    0.13583    0.13800    1.000
    C23      C        0.57760    0.37436    0.33080    1.000
    C24      C        0.84750    0.36326    0.36540    1.000
    N37      N        0.35270    0.50197    0.31280    1.000
    N38      N        0.42840    0.50444    0.17560    1.000
    N39      N        0.15760    0.50226    0.13450    1.000
    N40      N        0.99760    0.50049    0.06900    1.000
    N41      N        0.63340    0.42691    0.40880    1.000
    N42      N        0.80700    0.42045    0.42940    1.000
    N43      N        0.70780    0.33298    0.30040    1.000
    N44      N        0.68340    0.26853    0.23580    1.000
    N45      N        0.86540    0.07441    0.08530    1.000
    N46      N        0.69060    0.07741    0.07960    1.000
    N47      N        0.79390    0.17142    0.18140    1.000
    N48      N        0.81680    0.23614    0.24420    1.000
    H19      H        0.11200    0.49900    0.35600    1.000
    H20      H        0.33000    0.50580    0.97200    1.000
    H21      H        0.03400    0.14200    0.16800    1.000
    H22      H        0.54300    0.15320    0.15000    1.000
    H23      H        0.47300    0.36360    0.30200    1.000
    H24      H        0.96000    0.34580    0.36000    1.000
    Fe1      Fe       0.00000    0.00000    0.00000    1.000
    Fe2      Fe       0.50000    0.50000    0.50000    1.000
