# CIF file generated by openbabel 3.1.0, see https://openbabel.org
data_I
_chemical_name_common 'image0'
_cell_length_a 10.528
_cell_length_b 10.671
_cell_length_c 11.378
_cell_angle_alpha 83.14
_cell_angle_beta 74.61
_cell_angle_gamma 69.34
_space_group_name_H-M_alt 'P 1'
_space_group_name_Hall 'P 1'
loop_
    _symmetry_equiv_pos_as_xyz
    x,y,z
loop_
    _atom_site_label
    _atom_site_type_symbol
    _atom_site_fract_x
    _atom_site_fract_y
    _atom_site_fract_z
    _atom_site_occupancy
    Sm1      Sm       0.58795    0.59672    0.63094    1.000
    O1       O        0.39590    0.62080    0.40760    1.000
    O2       O        0.47030    0.74780    0.49540    1.000
    O3       O        0.27560    0.25220    0.44230    1.000
    O4       O        0.04670    0.32000    0.45480    1.000
    O5       O        0.87410    0.06100    0.26310    1.000
    O6       O        0.95370    0.84790    0.27440    1.000
    O7       O        0.00570    0.44090    0.66840    1.000
    O8       O        0.77630    0.48890    0.71780    1.000
    O9       O        0.53280    0.48090    0.16170    1.000
    O10      O        0.66050    0.38870    0.29510    1.000
    O11      O        0.17200    0.24910    0.15930    1.000
    O12      O        0.27150    0.23990    0.96810    1.000
    N1       N        0.96080    0.95680    0.28630    1.000
    N2       N        0.16790    0.26450    0.05230    1.000
    C1       C        0.28090    0.85570    0.40610    1.000
    C2       C        0.27930    0.98150    0.43150    1.000
    H1       H        0.35010    0.98780    0.46260    1.000
    C3       C        0.17260    0.09710    0.41060    1.000
    C4       C        0.06680    0.08810    0.36490    1.000
    H2       H        0.99270    0.16430    0.35390    1.000
    C5       C        0.07380    0.96320    0.33620    1.000
    C6       C        0.17710    0.84590    0.35680    1.000
    H3       H        0.17730    0.76320    0.33840    1.000
    C7       C        0.39090    0.73180    0.43810    1.000
    C8       C        0.16740    0.23340    0.43770    1.000
    C9       C        0.89730    0.41600    0.87490    1.000
    C10      C        0.77550    0.44130    0.96720    1.000
    H4       H        0.68920    0.48120    0.94780    1.000
    C11      C        0.78070    0.40790    0.08810    1.000
    C12      C        0.91020    0.34860    0.11730    1.000
    H5       H        0.91560    0.32570    0.19770    1.000
    C13      C        0.03110    0.32470    0.02330    1.000
    C14      C        0.02660    0.35640    0.90300    1.000
    H6       H        0.10870    0.33820    0.84170    1.000
    C15      C        0.89260    0.45180    0.74480    1.000
    C16      C        0.64920    0.42900    0.18700    1.000
    Sm2      Sm       0.41205    0.40328    0.36906    1.000
    O13      O        0.60410    0.37920    0.59240    1.000
    O14      O        0.52970    0.25220    0.50460    1.000
    O15      O        0.72440    0.74780    0.55770    1.000
    O16      O        0.95330    0.68000    0.54520    1.000
    O17      O        0.12590    0.93900    0.73690    1.000
    O18      O        0.04630    0.15210    0.72560    1.000
    O19      O        0.99430    0.55910    0.33160    1.000
    O20      O        0.22370    0.51110    0.28220    1.000
    O21      O        0.46720    0.51910    0.83830    1.000
    O22      O        0.33950    0.61130    0.70490    1.000
    O23      O        0.82800    0.75090    0.84070    1.000
    O24      O        0.72850    0.76010    0.03190    1.000
    N3       N        0.03920    0.04320    0.71370    1.000
    N4       N        0.83210    0.73550    0.94770    1.000
    C17      C        0.71910    0.14430    0.59390    1.000
    C18      C        0.72070    0.01850    0.56850    1.000
    H7       H        0.64990    0.01220    0.53740    1.000
    C19      C        0.82740    0.90290    0.58940    1.000
    C20      C        0.93320    0.91190    0.63510    1.000
    H8       H        0.00730    0.83570    0.64610    1.000
    C21      C        0.92620    0.03680    0.66380    1.000
    C22      C        0.82290    0.15410    0.64320    1.000
    H9       H        0.82270    0.23680    0.66160    1.000
    C23      C        0.60910    0.26820    0.56190    1.000
    C24      C        0.83260    0.76660    0.56230    1.000
    C25      C        0.10270    0.58400    0.12510    1.000
    C26      C        0.22450    0.55870    0.03280    1.000
    H10      H        0.31080    0.51880    0.05220    1.000
    C27      C        0.21930    0.59210    0.91190    1.000
    C28      C        0.08980    0.65140    0.88270    1.000
    H11      H        0.08440    0.67430    0.80230    1.000
    C29      C        0.96890    0.67530    0.97670    1.000
    C30      C        0.97340    0.64360    0.09700    1.000
    H12      H        0.89130    0.66180    0.15830    1.000
    C31      C        0.10740    0.54820    0.25520    1.000
    C32      C        0.35080    0.57100    0.81300    1.000
    Cu1      Cu       0.00000    0.50000    0.50000    1.000
