# CIF file generated by openbabel 3.1.0, see https://openbabel.org
data_I
_chemical_name_common 'CP2K'
_cell_length_a 32.1539
_cell_length_b 32.1539
_cell_length_c 32.1539
_cell_angle_alpha 60
_cell_angle_beta 60
_cell_angle_gamma 60
_space_group_name_H-M_alt 'P 1'
_space_group_name_Hall 'P 1'
loop_
    _symmetry_equiv_pos_as_xyz
    x,y,z
loop_
    _atom_site_label
    _atom_site_type_symbol
    _atom_site_fract_x
    _atom_site_fract_y
    _atom_site_fract_z
    _atom_site_occupancy
    H1       H        0.44187    0.15452    0.62266    1.000
    H2       H        0.80807    0.43492    0.49212    1.000
    H3       H        0.95896    0.55362    0.34118    1.000
    H4       H        0.72374    0.63753    0.49199    1.000
    H5       H        0.80783    0.78963    0.25584    1.000
    H6       H        0.95965    0.63809    0.13742    1.000
    C7       C        0.43294    0.07790    0.01176    1.000
    N8       N        0.43072    0.15637    0.00296    1.000
    C9       C        0.41050    0.11898    0.02896    1.000
    N10      N        0.42235    0.03416    0.02777    1.000
    C11      C        0.11308    0.16574    0.01978    1.000
    H12      H        0.35406    0.23583    0.02193    1.000
    C13      C        0.15713    0.16726    0.01839    1.000
    C14      C        0.24864    0.26326    0.00977    1.000
    C15      C        0.32261    0.25641    0.00704    1.000
    N16      N        0.28500    0.23658    0.03124    1.000
    N17      N        0.20535    0.25270    0.02483    1.000
    H18      H        0.84629    0.23558    0.02077    1.000
    C19      C        0.93512    0.26369    0.01041    1.000
    C20      C        0.87172    0.25631    0.00644    1.000
    N21      N        0.90443    0.23667    0.03118    1.000
    N22      N        0.97303    0.25375    0.02634    1.000
    C23      C        0.93621    0.07956    0.00957    1.000
    N24      N        0.86835    0.15763    0.00011    1.000
    C25      C        0.90035    0.12116    0.02596    1.000
    N26      N        0.97446    0.03613    0.02607    1.000
    C27      C        0.33425    0.98801    0.02086    1.000
    C28      C        0.15936    0.94443    0.01968    1.000
    C29      C        0.24846    0.76562    0.01031    1.000
    N30      N        0.32699    0.69831    0.00058    1.000
    C31      C        0.29003    0.72988    0.02677    1.000
    N32      N        0.20486    0.80368    0.02691    1.000
    H33      H        0.14901    0.50222    0.05298    1.000
    Zn34     Zn       0.05066    0.69654    0.02865    1.000
    N35      N        0.06969    0.64089    0.00670    1.000
    Zn36     Zn       0.04654    0.51374    0.03103    1.000
    N37      N        0.06986    0.57007    0.00762    1.000
    C38      C        0.11508    0.98835    0.01859    1.000
    H39      H        0.40581    0.67650    0.02008    1.000
    C40      C        0.33607    0.94373    0.01936    1.000
    C41      C        0.43274    0.76612    0.00971    1.000
    C42      C        0.42617    0.70229    0.00569    1.000
    N43      N        0.40607    0.73511    0.03045    1.000
    N44      N        0.42225    0.80427    0.02563    1.000
    H45      H        0.00522    0.61486    0.05231    1.000
    C46      C        0.04376    0.60946    0.02525    1.000
    Zn47     Zn       0.86374    0.51352    0.03096    1.000
    N48      N        0.90088    0.52797    0.05478    1.000
    N49      N        0.80940    0.57200    0.00634    1.000
    N50      N        0.97487    0.73341    0.05403    1.000
    Zn51     Zn       0.68367    0.88071    0.02639    1.000
    N52      N        0.69683    0.80503    0.05247    1.000
    N53      N        0.74163    0.89980    0.00637    1.000
    Zn54     Zn       0.68115    0.69621    0.03092    1.000
    N55      N        0.69900    0.73361    0.05147    1.000
    N56      N        0.73986    0.64286    0.00508    1.000
    Zn57     Zn       0.86624    0.87886    0.03161    1.000
    N58      N        0.90356    0.80363    0.05243    1.000
    N59      N        0.81242    0.89957    0.00563    1.000
    N60      N        0.97148    0.52965    0.05346    1.000
    H61      H        0.75003    0.50115    0.05519    1.000
    H62      H        0.66972    0.98353    0.05077    1.000
    H63      H        0.97347    0.51022    0.99773    1.000
    C64      C        0.95105    0.52127    0.03158    1.000
    H65      H        0.97710    0.80599    0.99749    1.000
    C66      C        0.95447    0.78346    0.03093    1.000
    H67      H        0.67894    0.80691    0.99585    1.000
    C68      C        0.69026    0.78442    0.02954    1.000
    H69      H        0.78383    0.61792    0.05069    1.000
    C70      C        0.77863    0.61158    0.02367    1.000
    H71      H        0.78797    0.83472    0.05021    1.000
    C72      C        0.78143    0.87346    0.02369    1.000
    H73      H        0.16310    0.22034    0.77701    1.000
    C74      C        0.11484    0.31666    0.69206    1.000
    C75      C        0.16056    0.24804    0.73990    1.000
    N76      N        0.11454    0.28359    0.73897    1.000
    H77      H        0.14985    0.35211    0.28495    1.000
    Zn78     Zn       0.18095    0.19596    0.53104    1.000
    H79      H        0.24431    0.12791    0.69514    1.000
    H80      H        0.35416    0.23554    0.38004    1.000
    C81      C        0.15883    0.16507    0.64742    1.000
    C82      C        0.20711    0.13985    0.69282    1.000
    C83      C        0.10636    0.19023    0.50465    1.000
    N84      N        0.11341    0.14072    0.53148    1.000
    C85      C        0.25679    0.13244    0.46307    1.000
    N86      N        0.23949    0.16231    0.42363    1.000
    C87      C        0.24776    0.26363    0.46905    1.000
    C88      C        0.32236    0.25631    0.40547    1.000
    N89      N        0.20582    0.15155    0.64690    1.000
    C90      C        0.09074    0.12158    0.52286    1.000
    C91      C        0.26891    0.14667    0.38282    1.000
    N92      N        0.28461    0.23661    0.43833    1.000
    N93      N        0.14441    0.17937    0.60692    1.000
    N94      N        0.12505    0.22104    0.50420    1.000
    N95      N        0.23645    0.13824    0.50997    1.000
    N96      N        0.20396    0.25364    0.50722    1.000
    Zn97     Zn       0.36450    0.00990    0.08460    1.000
    H98      H        0.29683    0.07351    0.92496    1.000
    C99      C        0.30909    0.03628    0.95236    1.000
    C100     C        0.30111    0.08732    0.13797    1.000
    N101     N        0.33202    0.07067    0.16355    1.000
    N102     N        0.32042    0.03507    0.98811    1.000
    C103     C        0.31681    0.10039    0.19014    1.000
    N104     N        0.30692    0.06665    0.10587    1.000
    H105     H        0.40438    0.32247    0.37829    1.000
    C106     C        0.33472    0.31733    0.64759    1.000
    C107     C        0.30966    0.24879    0.69276    1.000
    C108     C        0.43159    0.30915    0.46916    1.000
    C109     C        0.42448    0.30682    0.40468    1.000
    N110     N        0.32114    0.28451    0.64693    1.000
    N111     N        0.40548    0.33148    0.43730    1.000
    N112     N        0.42172    0.32451    0.50747    1.000
    H113     H        0.16269    0.07454    0.83035    1.000
    C114     C        0.16029    0.03735    0.84239    1.000
    N115     N        0.11433    0.03615    0.85406    1.000
    C116     C        0.48711    0.16548    0.69177    1.000
    C117     C        0.41865    0.14027    0.74035    1.000
    C118     C        0.47822    0.26408    0.78153    1.000
    N119     N        0.46919    0.26211    0.85999    1.000
    N120     N        0.45431    0.15196    0.73886    1.000
    C121     C        0.49540    0.24190    0.82258    1.000
    N122     N        0.49458    0.25344    0.73776    1.000
    H123     H        0.39053    0.07475    0.69568    1.000
    H124     H        0.48800    0.18478    0.38030    1.000
    C125     C        0.41808    0.03758    0.69321    1.000
    C126     C        0.47640    0.07891    0.46991    1.000
    C127     C        0.47325    0.15325    0.40599    1.000
    N128     N        0.45387    0.03659    0.64730    1.000
    N129     N        0.49755    0.11556    0.43914    1.000
    N130     N        0.49176    0.03521    0.50826    1.000
    H131     H        0.16097    0.12777    0.92425    1.000
    C132     C        0.15858    0.14006    0.95161    1.000
    N133     N        0.11262    0.15187    0.98705    1.000
    N134     N        0.07259    0.18015    0.06034    1.000
    H135     H        0.24380    0.22317    0.82968    1.000
    C136     C        0.15809    0.31878    0.86751    1.000
    C137     C        0.20651    0.25042    0.84213    1.000
    C138     C        0.24861    0.30784    0.96635    1.000
    N139     N        0.32673    0.29860    0.96532    1.000
    N140     N        0.20522    0.28631    0.85334    1.000
    C141     C        0.28975    0.32481    0.94455    1.000
    N142     N        0.20515    0.32419    0.95519    1.000
    Zn143    Zn       0.05106    0.32652    0.21410    1.000
    C144     C        0.07643    0.21939    0.22147    1.000
    N145     N        0.04984    0.20356    0.27104    1.000
    C146     C        0.11694    0.27259    0.27813    1.000
    N147     N        0.15624    0.24640    0.24761    1.000
    C148     C        0.05802    0.15324    0.28978    1.000
    C149     C        0.19732    0.21926    0.26281    1.000
    N150     N        0.07724    0.26837    0.19084    1.000
    N151     N        0.06982    0.30488    0.27277    1.000
    H152     H        0.08930    0.15400    0.77272    1.000
    C153     C        0.38997    0.02766    0.30951    1.000
    H154     H        0.44215    0.07064    0.85657    1.000
    H155     H        0.23976    0.27247    0.62171    1.000
    H156     H        0.37663    0.12472    0.42943    1.000
    H157     H        0.23837    0.15475    0.97501    1.000
    H158     H        0.08832    0.27265    0.85868    1.000
    H159     H        0.32434    0.06955    0.62239    1.000
    H160     H        0.08948    0.06947    0.97495    1.000
    Zn161    Zn       0.04845    0.32869    0.39847    1.000
    H162     H        0.03287    0.21576    0.44088    1.000
    H163     H        0.16599    0.23836    0.36808    1.000
    C164     C        0.07754    0.22019    0.47137    1.000
    C165     C        0.05566    0.19599    0.46574    1.000
    C166     C        0.11720    0.27198    0.32229    1.000
    C167     C        0.16179    0.24202    0.33461    1.000
    N168     N        0.06274    0.14622    0.49172    1.000
    N169     N        0.20190    0.21596    0.30415    1.000
    N170     N        0.07880    0.26940    0.45074    1.000
    N171     N        0.07007    0.30432    0.34322    1.000
    N172     N        0.38756    0.03199    0.26654    1.000
    H173     H        0.37683    0.12238    0.06272    1.000
    H174     H        0.36718    0.06119    0.32157    1.000
    H175     H        0.03728    0.13790    0.32992    1.000
    H176     H        0.23078    0.19684    0.23964    1.000
    C177     C        0.11377    0.31681    0.86995    1.000
    N178     N        0.16680    0.24449    0.84377    1.000
    C179     C        0.12002    0.27769    0.85766    1.000
    Zn180    Zn       0.18150    0.19605    0.08170    1.000
    H181     H        0.13899    0.10833    0.19491    1.000
    H182     H        0.21298    0.19424    0.16855    1.000
    N183     N        0.20278    0.14087    0.94620    1.000
    C184     C        0.10910    0.18758    0.19112    1.000
    C185     C        0.11445    0.13595    0.21499    1.000
    C186     C        0.25706    0.13116    0.13801    1.000
    C187     C        0.24552    0.15932    0.16643    1.000
    C188     C        0.20247    0.15445    0.97963    1.000
    N189     N        0.08867    0.11901    0.26478    1.000
    N190     N        0.27577    0.14332    0.19255    1.000
    N191     N        0.14327    0.18210    0.05869    1.000
    N192     N        0.12963    0.21760    0.14197    1.000
    N193     N        0.23606    0.13645    0.10618    1.000
    Zn194    Zn       0.36396    0.01135    0.53167    1.000
    H195     H        0.36227    0.04240    0.41477    1.000
    N196     N        0.31029    0.03397    0.70071    1.000
    C197     C        0.30087    0.08849    0.46305    1.000
    C198     C        0.32803    0.07571    0.41876    1.000
    C199     C        0.43278    0.07912    0.46888    1.000
    N200     N        0.43153    0.15745    0.40136    1.000
    C201     C        0.32367    0.03374    0.65403    1.000
    N202     N        0.31174    0.10545    0.37853    1.000
    C203     C        0.41069    0.12053    0.43293    1.000
    N204     N        0.30708    0.06826    0.51000    1.000
    N205     N        0.42166    0.03551    0.50687    1.000
    H206     H        0.00970    0.08102    0.27183    1.000
    H207     H        0.40611    0.31792    0.88827    1.000
    C208     C        0.33640    0.31582    0.69161    1.000
    N209     N        0.31057    0.24327    0.73696    1.000
    C210     C        0.43345    0.30732    0.78206    1.000
    C211     C        0.42673    0.30359    0.85643    1.000
    C212     C        0.32392    0.27679    0.73680    1.000
    N213     N        0.40667    0.32818    0.81891    1.000
    N214     N        0.42282    0.32287    0.73867    1.000
    N215     N        0.16767    0.03390    0.94565    1.000
    C216     C        0.12111    0.03362    0.97950    1.000
    C217     C        0.48569    0.16678    0.64771    1.000
    N218     N        0.41315    0.14101    0.70085    1.000
    C219     C        0.47487    0.26439    0.46922    1.000
    N220     N        0.46528    0.26378    0.40138    1.000
    C221     C        0.44667    0.15423    0.65412    1.000
    C222     C        0.49091    0.24206    0.43366    1.000
    N223     N        0.49121    0.25274    0.50769    1.000
    H224     H        0.48686    0.18456    0.94033    1.000
    N225     N        0.41308    0.03486    0.84325    1.000
    C226     C        0.47644    0.07844    0.96725    1.000
    C227     C        0.47250    0.15277    0.96074    1.000
    C228     C        0.44668    0.03466    0.85652    1.000
    N229     N        0.49739    0.11521    0.94071    1.000
    N230     N        0.49222    0.03516    0.95641    1.000
    H231     H        0.09496    0.08140    0.54367    1.000
    H232     H        0.01558    0.10785    0.67186    1.000
    C233     C        0.11464    0.16643    0.69147    1.000
    N234     N        0.16749    0.14048    0.73704    1.000
    C235     C        0.12083    0.15377    0.73679    1.000
    N236     N        0.07347    0.18112    0.67750    1.000
    H237     H        0.25691    0.16935    0.34928    1.000
    H238     H        0.33990    0.08863    0.21250    1.000
    C239     C        0.15865    0.31556    0.64767    1.000
    N240     N        0.20460    0.24293    0.70007    1.000
    C241     C        0.24777    0.30813    0.46810    1.000
    N242     N        0.32631    0.29861    0.40085    1.000
    C243     C        0.20405    0.27673    0.65354    1.000
    C244     C        0.28906    0.32493    0.43218    1.000
    N245     N        0.20406    0.32485    0.50597    1.000
    H246     H        0.07119    0.19933    0.60480    1.000
    C247     C        0.09378    0.18797    0.62724    1.000
    H248     H        0.07061    0.20043    0.11546    1.000
    C249     C        0.09300    0.18895    0.08186    1.000
    H250     H        0.11703    0.29976    0.46171    1.000
    C251     C        0.10780    0.26715    0.47136    1.000
    H252     H        0.11959    0.29682    0.11206    1.000
    C253     C        0.10963    0.26470    0.14456    1.000
    H254     H        0.26181    0.09433    0.57436    1.000
    C255     C        0.26781    0.09946    0.53593    1.000
    H256     H        0.26188    0.09070    0.06155    1.000
    C257     C        0.26739    0.09729    0.08820    1.000
    H258     H        0.04257    0.09165    0.79578    1.000
    C259     C        0.00402    0.09771    0.80119    1.000
    H260     H        0.04165    0.09311    0.06155    1.000
    C261     C        0.00311    0.09844    0.08863    1.000
    H262     H        0.00535    0.34974    0.31845    1.000
    C263     C        0.04389    0.32266    0.31209    1.000
    H264     H        0.02794    0.28881    0.68022    1.000
    H265     H        0.14471    0.29294    0.55962    1.000
    C266     C        0.18011    0.29091    0.52766    1.000
    C267     C        0.45845    0.01089    0.99338    1.000
    H268     H        0.46024    0.29041    0.56098    1.000
    C269     C        0.45806    0.28954    0.52883    1.000
    H270     H        0.46175    0.29057    0.67928    1.000
    C271     C        0.46019    0.28923    0.71443    1.000
    C272     C        0.45772    0.01155    0.52873    1.000
    H273     H        0.02535    0.29314    0.99409    1.000
    H274     H        0.14664    0.29142    0.99177    1.000
    C275     C        0.18158    0.28990    0.99082    1.000
    H276     H        0.39121    0.12824    0.77764    1.000
    H277     H        0.84505    0.32088    0.88663    1.000
    C278     C        0.93580    0.30773    0.78179    1.000
    C279     C        0.87124    0.30544    0.85564    1.000
    N280     N        0.90419    0.32986    0.81760    1.000
    N281     N        0.97440    0.32277    0.73818    1.000
    Zn282    Zn       0.99854    0.01120    0.89845    1.000
    H283     H        0.84634    0.18392    0.93823    1.000
    C284     C        0.93090    0.08707    0.83473    1.000
    N285     N        0.89143    0.06987    0.86495    1.000
    C286     C        0.93671    0.07876    0.96567    1.000
    C287     C        0.87242    0.15280    0.95855    1.000
    C288     C        0.85046    0.09927    0.84959    1.000
    N289     N        0.90544    0.11495    0.93906    1.000
    N290     N        0.97789    0.06670    0.84037    1.000
    N291     N        0.97499    0.03499    0.95571    1.000
    Zn292    Zn       0.55110    0.19601    0.71333    1.000
    C293     C        0.65765    0.19079    0.63863    1.000
    N294     N        0.67368    0.14119    0.64575    1.000
    C295     C        0.60538    0.13280    0.79031    1.000
    N296     N        0.63118    0.16351    0.77360    1.000
    C297     C        0.72409    0.12251    0.62259    1.000
    C298     C        0.65824    0.14793    0.80300    1.000
    N299     N        0.52783    0.17980    0.67707    1.000
    N300     N        0.60852    0.22129    0.65765    1.000
    N301     N        0.57292    0.13882    0.76989    1.000
    Zn302    Zn       0.54893    0.01161    0.53148    1.000
    C303     C        0.60539    0.08700    0.46403    1.000
    N304     N        0.63224    0.06952    0.42476    1.000
    C305     C        0.65867    0.09927    0.38356    1.000
    N306     N        0.57362    0.06617    0.51133    1.000
    Zn307    Zn       0.99637    0.19621    0.08349    1.000
    C308     C        0.97109    0.18967    0.19020    1.000
    N309     N        0.99739    0.14000    0.20610    1.000
    C310     C        0.92975    0.13200    0.13859    1.000
    N311     N        0.89014    0.16239    0.16476    1.000
    C312     C        0.98919    0.12124    0.25644    1.000
    C313     C        0.84922    0.14696    0.19163    1.000
    N314     N        0.97037    0.22035    0.14120    1.000
    N315     N        0.97668    0.13777    0.10634    1.000
    N316     N        0.97487    0.35179    0.22797    1.000
    N317     N        0.58065    0.00991    0.25344    1.000
    N318     N        0.72094    0.01016    0.14755    1.000
    C319     C        0.77651    0.02873    0.26317    1.000
    Zn320    Zn       0.68330    0.32600    0.39890    1.000
    C321     C        0.68872    0.21916    0.47317    1.000
    N322     N        0.73821    0.20298    0.46647    1.000
    C323     C        0.74623    0.27253    0.32222    1.000
    N324     N        0.71489    0.24741    0.33892    1.000
    C325     C        0.75660    0.15264    0.49009    1.000
    C326     C        0.73002    0.22034    0.30967    1.000
    N327     N        0.69687    0.35152    0.43540    1.000
    N328     N        0.65850    0.26832    0.45373    1.000
    N329     N        0.74090    0.30471    0.34258    1.000
    H330     H        0.89711    0.12597    0.05886    1.000
    H331     H        0.52338    0.20717    0.43096    1.000
    H332     H        0.89647    0.20672    0.82926    1.000
    N333     N        0.61540    0.01043    0.11122    1.000
    C334     C        0.73083    0.02809    0.92261    1.000
    Zn335    Zn       0.86671    0.32625    0.58314    1.000
    C336     C        0.94051    0.21891    0.60932    1.000
    N337     N        0.93328    0.20307    0.58280    1.000
    C338     C        0.78928    0.27343    0.64964    1.000
    N339     N        0.80604    0.24768    0.68941    1.000
    C340     C        0.95662    0.15273    0.59104    1.000
    C341     C        0.77677    0.22047    0.73030    1.000
    N342     N        0.90329    0.35130    0.50735    1.000
    N343     N        0.92150    0.26796    0.60994    1.000
    N344     N        0.80970    0.30587    0.60272    1.000
    N345     N        0.97345    0.34961    0.43600    1.000
    H346     H        0.78874    0.19798    0.76387    1.000
    H347     H        0.55888    0.03085    0.17435    1.000
    C348     C        0.57386    0.00536    0.15348    1.000
    H349     H        0.95247    0.13741    0.57034    1.000
    H350     H        0.70750    0.06178    0.90046    1.000
    H351     H        0.69401    0.03100    0.09079    1.000
    C352     C        0.72539    0.00544    0.10576    1.000
    N353     N        0.77208    0.03246    0.91972    1.000
    H354     H        0.79669    0.13703    0.48638    1.000
    Zn355    Zn       0.68141    0.33072    0.58092    1.000
    H356     H        0.76859    0.21761    0.56424    1.000
    H357     H        0.68353    0.24108    0.69835    1.000
    C358     C        0.68934    0.22125    0.60932    1.000
    C359     C        0.74106    0.19745    0.58720    1.000
    C360     C        0.74562    0.27307    0.64944    1.000
    C361     C        0.71804    0.24382    0.69411    1.000
    N362     N        0.75818    0.14763    0.59429    1.000
    N363     N        0.73422    0.21750    0.73438    1.000
    N364     N        0.69880    0.35066    0.50566    1.000
    N365     N        0.65919    0.27042    0.61049    1.000
    N366     N        0.74001    0.30517    0.60216    1.000
    H367     H        0.70665    0.19819    0.32157    1.000
    H368     H        0.78830    0.06241    0.24003    1.000
    H369     H        0.52934    0.20844    0.82592    1.000
    H370     H        0.64286    0.03153    0.22708    1.000
    C371     C        0.62237    0.00558    0.25820    1.000
    N372     N        0.73389    0.03289    0.30454    1.000
    Zn373    Zn       0.86575    0.32910    0.21438    1.000
    H374     H        0.90907    0.21637    0.30115    1.000
    H375     H        0.83509    0.23982    0.21653    1.000
    C376     C        0.93871    0.22006    0.22197    1.000
    C377     C        0.93333    0.19620    0.27360    1.000
    C378     C        0.79057    0.27164    0.27870    1.000
    C379     C        0.80213    0.24273    0.25104    1.000
    N380     N        0.95879    0.14631    0.29061    1.000
    N381     N        0.77142    0.21706    0.26715    1.000
    N382     N        0.90349    0.35029    0.23063    1.000
    N383     N        0.91846    0.26931    0.19196    1.000
    N384     N        0.81206    0.30306    0.27323    1.000
    C385     C        0.93429    0.30811    0.96679    1.000
    N386     N        0.86723    0.29854    0.96472    1.000
    C387     C        0.89855    0.32486    0.94441    1.000
    N388     N        0.97205    0.32487    0.95617    1.000
    H389     H        0.68156    0.08707    0.35013    1.000
    H390     H        0.81557    0.16999    0.21406    1.000
    H391     H        0.81692    0.08727    0.87254    1.000
    H392     H        0.66896    0.34868    0.28719    1.000
    Zn393    Zn       0.99869    0.01131    0.08322    1.000
    H394     H        0.88138    0.04186    0.17186    1.000
    C395     C        0.93005    0.08757    0.13917    1.000
    C396     C        0.88547    0.07520    0.16860    1.000
    N397     N        0.84502    0.10558    0.19455    1.000
    N398     N        0.97747    0.06677    0.10700    1.000
    H399     H        0.73960    0.08236    0.62660    1.000
    Zn400    Zn       0.54858    0.19625    0.53119    1.000
    H401     H        0.66115    0.10864    0.54836    1.000
    H402     H        0.63658    0.19371    0.41461    1.000
    C403     C        0.65804    0.18770    0.50241    1.000
    C404     C        0.68150    0.13604    0.52516    1.000
    C405     C        0.60473    0.13150    0.46366    1.000
    C406     C        0.63398    0.15909    0.41893    1.000
    N407     N        0.73121    0.11876    0.51853    1.000
    N408     N        0.66066    0.14264    0.37885    1.000
    N409     N        0.52617    0.18127    0.60637    1.000
    N410     N        0.60904    0.21804    0.50066    1.000
    N411     N        0.57211    0.13754    0.51081    1.000
    H412     H        0.68082    0.17089    0.79104    1.000
    Zn413    Zn       0.54909    0.01374    0.89858    1.000
    H414     H        0.63700    0.04384    0.89659    1.000
    C415     C        0.60565    0.08860    0.83399    1.000
    C416     C        0.63459    0.07658    0.86184    1.000
    N417     N        0.66095    0.10664    0.84571    1.000
    N418     N        0.57356    0.06786    0.83943    1.000
    Zn419    Zn       0.99850    0.19553    0.71441    1.000
    H420     H        0.88218    0.19251    0.74498    1.000
    C421     C        0.96996    0.18712    0.64201    1.000
    C422     C        0.99233    0.13546    0.64741    1.000
    C423     C        0.93089    0.13092    0.79058    1.000
    C424     C        0.88632    0.15825    0.77822    1.000
    C425     C        0.93541    0.26340    0.78278    1.000
    N426     N        0.86747    0.26285    0.86072    1.000
    N427     N        0.98519    0.11851    0.62169    1.000
    N428     N        0.84604    0.14208    0.80837    1.000
    C429     C        0.89956    0.24130    0.82439    1.000
    N430     N        0.96869    0.21719    0.66240    1.000
    N431     N        0.97813    0.13684    0.76983    1.000
    N432     N        0.97388    0.25176    0.73961    1.000
    H433     H        0.75420    0.34938    0.68544    1.000
    H434     H        0.58328    0.19930    0.60372    1.000
    C435     C        0.54947    0.18818    0.62640    1.000
    H436     H        0.97699    0.29524    0.20979    1.000
    C437     C        0.95443    0.32873    0.22144    1.000
    H438     H        0.67871    0.29506    0.50792    1.000
    C439     C        0.69013    0.32867    0.48553    1.000
    H440     H        0.97574    0.29427    0.50942    1.000
    C441     C        0.95329    0.32802    0.48690    1.000
    H442     H        0.57977    0.30029    0.64914    1.000
    C443     C        0.61209    0.26773    0.63995    1.000
    H444     H        0.92863    0.29927    0.11265    1.000
    C445     C        0.93832    0.26672    0.14487    1.000
    H446     H        0.57971    0.29739    0.46140    1.000
    C447     C        0.61205    0.26504    0.47102    1.000
    H448     H        0.92960    0.29658    0.65201    1.000
    C449     C        0.93912    0.26432    0.64229    1.000
    H450     H        0.52825    0.09405    0.79426    1.000
    C451     C        0.55522    0.09935    0.80057    1.000
    H452     H        0.52759    0.09184    0.57559    1.000
    C453     C        0.55480    0.09784    0.53709    1.000
    H454     H        0.78776    0.34802    0.31748    1.000
    C455     C        0.78097    0.32157    0.31193    1.000
    H456     H        0.78439    0.35048    0.53779    1.000
    C457     C        0.77884    0.32351    0.57636    1.000
    C458     C        0.99552    0.28804    0.71522    1.000
    C459     C        0.99588    0.01176    0.99250    1.000
    C460     C        0.99353    0.29098    0.99258    1.000
    H461     H        0.01549    0.49194    0.67176    1.000
    N462     N        0.07430    0.35744    0.67775    1.000
    H463     H        0.25782    0.50983    0.34866    1.000
    H464     H        0.39089    0.99290    0.83053    1.000
    C465     C        0.48657    0.94530    0.86818    1.000
    C466     C        0.41832    0.99061    0.84267    1.000
    C467     C        0.47710    0.76570    0.96603    1.000
    N468     N        0.46832    0.69822    0.96386    1.000
    N469     N        0.45373    0.94466    0.85461    1.000
    C470     C        0.49408    0.73010    0.94338    1.000
    N471     N        0.49331    0.80384    0.95547    1.000
    H472     H        0.09336    0.57048    0.54438    1.000
    C473     C        0.36036    0.93559    0.19114    1.000
    N474     N        0.31075    0.94248    0.20760    1.000
    C475     C        0.29249    0.91912    0.25801    1.000
    N476     N        0.34843    0.97346    0.06161    1.000
    N477     N        0.39043    0.95486    0.14187    1.000
    H478     H        0.33933    0.64609    0.21541    1.000
    Zn479    Zn       0.18107    0.82872    0.08347    1.000
    H480     H        0.24454    0.99224    0.92307    1.000
    H481     H        0.21259    0.71077    0.17122    1.000
    C482     C        0.20741    0.98980    0.95084    1.000
    C483     C        0.10726    0.80120    0.19071    1.000
    N484     N        0.11540    0.82658    0.20710    1.000
    C485     C        0.25793    0.75956    0.13893    1.000
    C486     C        0.24571    0.71494    0.16836    1.000
    N487     N        0.20627    0.94390    0.98654    1.000
    C488     C        0.09119    0.81877    0.25732    1.000
    N489     N        0.27569    0.67485    0.19492    1.000
    N490     N        0.14503    0.90398    0.06057    1.000
    N491     N        0.12698    0.80026    0.14166    1.000
    N492     N        0.23733    0.80646    0.10633    1.000
    Zn493    Zn       0.36378    0.38144    0.53181    1.000
    H494     H        0.36281    0.46836    0.41357    1.000
    C495     C        0.35893    0.48833    0.50379    1.000
    N496     N        0.30908    0.50489    0.52922    1.000
    C497     C        0.30082    0.43630    0.46300    1.000
    C498     C        0.32834    0.46533    0.41807    1.000
    C499     C        0.29099    0.55516    0.52108    1.000
    N500     N        0.31219    0.49105    0.37781    1.000
    N501     N        0.34882    0.35811    0.60725    1.000
    N502     N        0.38897    0.43920    0.50308    1.000
    N503     N        0.30656    0.40472    0.51022    1.000
    C504     C        0.11480    0.98919    0.86754    1.000
    N505     N        0.07429    0.97480    0.88185    1.000
    H506     H        0.15168    0.58394    0.20248    1.000
    C507     C        0.48672    0.98960    0.64762    1.000
    Zn508    Zn       0.36595    0.82848    0.71387    1.000
    H509     H        0.29689    0.99223    0.77765    1.000
    H510     H        0.28025    0.84749    0.66909    1.000
    C511     C        0.33391    0.94462    0.69211    1.000
    C512     C        0.30902    0.98989    0.74039    1.000
    C513     C        0.35930    0.80106    0.63998    1.000
    C514     C        0.30769    0.82359    0.64524    1.000
    C515     C        0.30182    0.76105    0.79017    1.000
    N516     N        0.33272    0.72128    0.77343    1.000
    C517     C        0.43399    0.76606    0.78109    1.000
    N518     N        0.43241    0.69824    0.85925    1.000
    N519     N        0.32022    0.94408    0.73915    1.000
    N520     N        0.29050    0.81575    0.62029    1.000
    C521     C        0.31741    0.68023    0.80288    1.000
    C522     C        0.41195    0.72987    0.82207    1.000
    N523     N        0.34788    0.90425    0.67760    1.000
    N524     N        0.38940    0.80052    0.65973    1.000
    N525     N        0.30753    0.80814    0.76949    1.000
    N526     N        0.42315    0.80427    0.73747    1.000
    H527     H        0.00994    0.57001    0.78306    1.000
    Zn528    Zn       0.18078    0.38109    0.89850    1.000
    H529     H        0.13624    0.49237    0.81276    1.000
    C530     C        0.10650    0.48908    0.89180    1.000
    C531     C        0.11211    0.51276    0.84010    1.000
    C532     C        0.25678    0.43649    0.83433    1.000
    N533     N        0.24017    0.46225    0.86503    1.000
    N534     N        0.08717    0.56272    0.82272    1.000
    C535     C        0.27014    0.48855    0.84991    1.000
    N536     N        0.14354    0.35960    0.88160    1.000
    N537     N        0.12621    0.43985    0.92205    1.000
    N538     N        0.23568    0.40483    0.83985    1.000
    H539     H        0.24889    0.92595    0.54266    1.000
    H540     H        0.20075    0.39024    0.17348    1.000
    C541     C        0.11118    0.40063    0.14646    1.000
    C542     C        0.17479    0.40481    0.15324    1.000
    N543     N        0.14242    0.37969    0.17294    1.000
    N544     N        0.07333    0.38445    0.15675    1.000
    H545     H        0.30900    0.78151    0.57038    1.000
    Zn546    Zn       0.49684    0.88060    0.39894    1.000
    H547     H        0.38485    0.86066    0.44347    1.000
    C548     C        0.38822    0.90718    0.47263    1.000
    C549     C        0.36451    0.88448    0.46741    1.000
    C550     C        0.44277    0.94692    0.32218    1.000
    N551     N        0.41681    0.98663    0.33906    1.000
    N552     N        0.31458    0.89206    0.49251    1.000
    N553     N        0.52090    0.80481    0.43535    1.000
    N554     N        0.43745    0.90799    0.45286    1.000
    N555     N        0.47474    0.89972    0.34302    1.000
    H556     H        0.32470    0.91819    0.97535    1.000
    H557     H        0.03698    0.62844    0.84099    1.000
    H558     H        0.23143    0.61958    0.23878    1.000
    H559     H        0.44147    0.91936    0.77241    1.000
    H560     H        0.20138    0.52246    0.09202    1.000
    C561     C        0.07625    0.77107    0.92181    1.000
    N562     N        0.04940    0.76422    0.90604    1.000
    C563     C        0.11671    0.62039    0.97456    1.000
    N564     N        0.15610    0.63775    0.94783    1.000
    C565     C        0.11172    0.62854    0.10263    1.000
    C566     C        0.17565    0.55417    0.10649    1.000
    C567     C        0.05751    0.78768    0.85573    1.000
    C568     C        0.19707    0.60824    0.92101    1.000
    N569     N        0.14282    0.59170    0.08178    1.000
    N570     N        0.07712    0.75185    0.97080    1.000
    N571     N        0.07360    0.67219    0.08670    1.000
    Zn572    Zn       0.49382    0.51371    0.58315    1.000
    C573     C        0.38735    0.51958    0.60931    1.000
    N574     N        0.37114    0.56899    0.58252    1.000
    C575     C        0.44157    0.57713    0.64972    1.000
    N576     N        0.41568    0.54643    0.68948    1.000
    C577     C        0.32078    0.58727    0.59101    1.000
    C578     C        0.38915    0.56160    0.73061    1.000
    N579     N        0.51997    0.52707    0.50742    1.000
    N580     N        0.43652    0.48940    0.60976    1.000
    N581     N        0.47345    0.57154    0.60259    1.000
    H582     H        0.36552    0.53739    0.32385    1.000
    Zn583    Zn       0.49607    0.69619    0.21602    1.000
    H584     H        0.40942    0.66416    0.21756    1.000
    C585     C        0.38856    0.76989    0.22286    1.000
    N586     N        0.37226    0.76210    0.27264    1.000
    C587     C        0.44199    0.61888    0.27937    1.000
    C588     C        0.41245    0.63111    0.25203    1.000
    C589     C        0.32206    0.78639    0.29086    1.000
    N590     N        0.38587    0.60112    0.26857    1.000
    N591     N        0.52143    0.73277    0.22955    1.000
    N592     N        0.43757    0.74992    0.19263    1.000
    N593     N        0.47466    0.63941    0.27318    1.000
    Zn594    Zn       0.04935    0.51314    0.39847    1.000
    H595     H        0.03297    0.59982    0.44074    1.000
    H596     H        0.16578    0.51500    0.36697    1.000
    H597     H        0.20203    0.47202    0.22612    1.000
    C598     C        0.07804    0.52062    0.47124    1.000
    C599     C        0.05568    0.57228    0.46572    1.000
    C600     C        0.11645    0.57757    0.32240    1.000
    C601     C        0.16147    0.54953    0.33402    1.000
    C602     C        0.11116    0.44565    0.33121    1.000
    C603     C        0.17573    0.45200    0.25734    1.000
    N604     N        0.06208    0.58927    0.49195    1.000
    N605     N        0.20196    0.56526    0.30337    1.000
    N606     N        0.14289    0.47177    0.29508    1.000
    N607     N        0.07979    0.49063    0.45044    1.000
    N608     N        0.06884    0.57238    0.34378    1.000
    N609     N        0.07260    0.45621    0.37461    1.000
    H610     H        0.24004    0.91948    0.85661    1.000
    H611     H        0.29272    0.35869    0.42835    1.000
    C612     C        0.11130    0.40176    0.33079    1.000
    N613     N        0.17928    0.41055    0.25276    1.000
    C614     C        0.14704    0.38502    0.28939    1.000
    N615     N        0.07276    0.38572    0.37413    1.000
    H616     H        0.30636    0.78198    0.33112    1.000
    Zn617    Zn       0.50086    0.87836    0.21385    1.000
    H618     H        0.38819    0.86099    0.30161    1.000
    H619     H        0.41189    0.99604    0.21548    1.000
    C620     C        0.39121    0.90636    0.22246    1.000
    C621     C        0.36779    0.88397    0.27426    1.000
    C622     C        0.44300    0.94695    0.27812    1.000
    C623     C        0.41411    0.99179    0.25026    1.000
    N624     N        0.31799    0.89076    0.29181    1.000
    N625     N        0.52057    0.80303    0.23146    1.000
    N626     N        0.44026    0.90789    0.19189    1.000
    N627     N        0.47508    0.89960    0.27256    1.000
    H628     H        0.23057    0.62032    0.89821    1.000
    H629     H        0.29437    0.72664    0.05993    1.000
    H630     H        0.03649    0.78391    0.84047    1.000
    Zn631    Zn       0.04888    0.69649    0.21402    1.000
    H632     H        0.02910    0.74129    0.30050    1.000
    C633     C        0.07614    0.77013    0.22173    1.000
    C634     C        0.05332    0.76484    0.27335    1.000
    C635     C        0.11662    0.62107    0.27807    1.000
    N636     N        0.15657    0.63750    0.24686    1.000
    C637     C        0.11221    0.62869    0.14636    1.000
    N638     N        0.17986    0.55039    0.14827    1.000
    N639     N        0.06123    0.78942    0.29088    1.000
    C640     C        0.19770    0.60788    0.26203    1.000
    C641     C        0.14810    0.58758    0.16873    1.000
    N642     N        0.07666    0.75078    0.19129    1.000
    N643     N        0.06939    0.64181    0.27263    1.000
    N644     N        0.07403    0.67245    0.15698    1.000
    H645     H        0.30511    0.62725    0.57004    1.000
    Zn646    Zn       0.49833    0.51146    0.39857    1.000
    H647     H        0.38755    0.59804    0.44299    1.000
    C648     C        0.39017    0.51926    0.47239    1.000
    C649     C        0.36685    0.57096    0.46680    1.000
    C650     C        0.44148    0.57539    0.32384    1.000
    N651     N        0.41481    0.54529    0.34134    1.000
    N652     N        0.31682    0.58868    0.49138    1.000
    C653     C        0.38824    0.56027    0.31173    1.000
    N654     N        0.51908    0.52912    0.43602    1.000
    N655     N        0.43933    0.48862    0.45307    1.000
    N656     N        0.47319    0.57028    0.34458    1.000
    H657     H        0.36668    0.53857    0.76423    1.000
    Zn658    Zn       0.49847    0.69655    0.58097    1.000
    H659     H        0.41115    0.66524    0.69905    1.000
    C660     C        0.39076    0.77033    0.60853    1.000
    N661     N        0.37471    0.76236    0.58274    1.000
    C662     C        0.44204    0.62077    0.64984    1.000
    C663     C        0.41333    0.63257    0.69469    1.000
    C664     C        0.32446    0.78617    0.59057    1.000
    N665     N        0.38685    0.60257    0.73496    1.000
    N666     N        0.52058    0.73367    0.50579    1.000
    N667     N        0.43973    0.75077    0.60964    1.000
    N668     N        0.47422    0.64141    0.60266    1.000
    H669     H        0.16545    0.51450    0.94228    1.000
    C670     C        0.07460    0.51990    0.92316    1.000
    N671     N        0.04882    0.56968    0.90692    1.000
    C672     C        0.11683    0.57620    0.97483    1.000
    C673     C        0.16130    0.54888    0.94520    1.000
    C674     C        0.11108    0.44478    0.10254    1.000
    N675     N        0.17830    0.44715    0.11159    1.000
    C676     C        0.05709    0.58814    0.85659    1.000
    N677     N        0.20148    0.56524    0.91856    1.000
    C678     C        0.14632    0.46772    0.08591    1.000
    N679     N        0.07531    0.48948    0.97228    1.000
    N680     N        0.07291    0.45534    0.08635    1.000
    H681     H        0.37845    0.72598    0.82556    1.000
    H682     H        0.29356    0.35857    0.91092    1.000
    N683     N        0.07241    0.35695    0.88497    1.000
    H684     H        0.25830    0.51111    0.87286    1.000
    H685     H        0.48842    0.67722    0.88725    1.000
    C686     C        0.48520    0.94520    0.69142    1.000
    N687     N        0.41253    0.99776    0.73718    1.000
    C688     C        0.47755    0.76685    0.78125    1.000
    C689     C        0.47398    0.70281    0.85552    1.000
    C690     C        0.44614    0.95115    0.73671    1.000
    N691     N        0.49848    0.73582    0.81805    1.000
    N692     N        0.49322    0.80519    0.73771    1.000
    H693     H        0.52104    0.98207    0.28581    1.000
    C694     C        0.33585    0.98856    0.64788    1.000
    C695     C        0.35732    0.93790    0.50409    1.000
    N696     N        0.30756    0.94568    0.52996    1.000
    C697     C        0.28913    0.92158    0.52229    1.000
    N698     N        0.35041    0.97477    0.60666    1.000
    N699     N        0.38768    0.95769    0.50294    1.000
    H700     H        0.34057    0.64661    0.79099    1.000
    Zn701    Zn       0.18167    0.82856    0.89834    1.000
    H702     H        0.13893    0.84598    0.81077    1.000
    H703     H        0.21286    0.71193    0.89621    1.000
    H704     H        0.35415    0.67695    0.93800    1.000
    C705     C        0.15882    0.94496    0.86883    1.000
    N706     N        0.20444    0.99766    0.84315    1.000
    C707     C        0.10910    0.80036    0.88996    1.000
    C708     C        0.11435    0.82287    0.83836    1.000
    C709     C        0.25770    0.76116    0.83390    1.000
    C710     C        0.24579    0.71629    0.86166    1.000
    C711     C        0.24828    0.76651    0.96594    1.000
    C712     C        0.32264    0.70260    0.95867    1.000
    C713     C        0.20414    0.95105    0.85634    1.000
    N714     N        0.08834    0.81606    0.82147    1.000
    N715     N        0.27609    0.67600    0.84555    1.000
    N716     N        0.28476    0.73552    0.93912    1.000
    N717     N        0.14487    0.90386    0.88333    1.000
    N718     N        0.12975    0.79885    0.91991    1.000
    N719     N        0.23674    0.80861    0.83935    1.000
    N720     N        0.20476    0.80502    0.95566    1.000
    H721     H        0.25069    0.57103    0.54099    1.000
    Zn722    Zn       0.36566    0.37946    0.71566    1.000
    H723     H        0.27695    0.49182    0.67299    1.000
    H724     H        0.36424    0.46631    0.74641    1.000
    C725     C        0.35596    0.48886    0.64251    1.000
    C726     C        0.30426    0.51224    0.64813    1.000
    C727     C        0.30092    0.43602    0.79061    1.000
    C728     C        0.32927    0.46433    0.77894    1.000
    N729     N        0.28692    0.56187    0.62216    1.000
    N730     N        0.31326    0.49063    0.80901    1.000
    N731     N        0.35109    0.35620    0.67787    1.000
    N732     N        0.38639    0.43996    0.66297    1.000
    N733     N        0.30616    0.40411    0.76977    1.000
    H734     H        0.01021    0.92568    0.78384    1.000
    H735     H        0.01547    0.96930    0.19595    1.000
    N736     N        0.07400    0.97446    0.05934    1.000
    H737     H        0.09589    0.83864    0.27309    1.000
    H738     H        0.51823    0.50023    0.68535    1.000
    C739     C        0.48550    0.98937    0.86933    1.000
    H740     H        0.52038    0.58272    0.20330    1.000
    Zn741    Zn       0.36589    0.82637    0.08346    1.000
    H742     H        0.27868    0.84769    0.19463    1.000
    N743     N        0.31049    0.99654    0.94666    1.000
    C744     C        0.35748    0.80076    0.19176    1.000
    C745     C        0.30588    0.82373    0.21521    1.000
    C746     C        0.30132    0.76012    0.13952    1.000
    N747     N        0.33140    0.72082    0.16620    1.000
    C748     C        0.32393    0.94986    0.98021    1.000
    N749     N        0.28841    0.81614    0.26517    1.000
    C750     C        0.31648    0.67956    0.19265    1.000
    N751     N        0.35065    0.90246    0.05979    1.000
    N752     N        0.38789    0.79981    0.14260    1.000
    N753     N        0.30626    0.80759    0.10788    1.000
    Zn754    Zn       0.18087    0.38109    0.53107    1.000
    C755     C        0.10665    0.48875    0.50474    1.000
    N756     N        0.11310    0.50462    0.53182    1.000
    C757     C        0.25725    0.43538    0.46318    1.000
    N758     N        0.24045    0.46061    0.42345    1.000
    C759     C        0.08992    0.55502    0.52329    1.000
    C760     C        0.26968    0.48771    0.38228    1.000
    N761     N        0.14465    0.35602    0.60661    1.000
    N762     N        0.12566    0.43964    0.50425    1.000
    N763     N        0.23709    0.40304    0.51037    1.000
    H764     H        0.25236    0.92299    0.27376    1.000
    H765     H        0.07221    0.41290    0.60433    1.000
    C766     C        0.09460    0.37918    0.62693    1.000
    H767     H        0.36841    0.90008    0.11688    1.000
    C768     C        0.35720    0.92269    0.08313    1.000
    H769     H        0.07203    0.90180    0.11641    1.000
    C770     C        0.09436    0.92432    0.08252    1.000
    H771     H        0.36921    0.41315    0.60523    1.000
    C772     C        0.35771    0.37956    0.62768    1.000
    H773     H        0.07211    0.90165    0.90166    1.000
    C774     C        0.09461    0.92416    0.89030    1.000
    H775     H        0.36801    0.90255    0.60403    1.000
    C776     C        0.35678    0.92473    0.62681    1.000
    H777     H        0.06980    0.41435    0.90233    1.000
    C778     C        0.09262    0.38066    0.89105    1.000
    H779     H        0.46487    0.80671    0.50836    1.000
    C780     C        0.49837    0.78431    0.48565    1.000
    H781     H        0.46346    0.50905    0.50931    1.000
    C782     C        0.49711    0.52041    0.48679    1.000
    H783     H        0.46489    0.80548    0.21140    1.000
    C784     C        0.49855    0.78292    0.22278    1.000
    H785     H        0.46922    0.94708    0.11227    1.000
    C786     C        0.43703    0.93746    0.14493    1.000
    H787     H        0.11687    0.76038    0.11216    1.000
    C788     C        0.10759    0.76956    0.14469    1.000
    H789     H        0.46825    0.40949    0.46290    1.000
    C790     C        0.43599    0.44207    0.47214    1.000
    H791     H        0.46849    0.76056    0.65038    1.000
    C792     C        0.43622    0.76985    0.64082    1.000
    H793     H        0.11607    0.41022    0.00132    1.000
    C794     C        0.10677    0.44269    0.96889    1.000
    H795     H        0.46683    0.94839    0.46220    1.000
    C796     C        0.43451    0.93876    0.47176    1.000
    H797     H        0.11972    0.75948    0.99920    1.000
    C798     C        0.10970    0.76923    0.96705    1.000
    H799     H        0.46583    0.41086    0.65199    1.000
    C800     C        0.43335    0.44302    0.64241    1.000
    H801     H        0.46676    0.75909    0.11342    1.000
    C802     C        0.43444    0.76885    0.14573    1.000
    H803     H        0.11854    0.41108    0.46144    1.000
    C804     C        0.10882    0.44340    0.47117    1.000
    H805     H        0.04275    0.35825    0.79381    1.000
    C806     C        0.00417    0.38519    0.80023    1.000
    H807     H        0.26122    0.87173    0.06225    1.000
    C808     C        0.26754    0.83310    0.08913    1.000
    H809     H        0.26242    0.35961    0.57528    1.000
    C810     C        0.26797    0.38613    0.53649    1.000
    H811     H        0.26263    0.87305    0.79422    1.000
    C812     C        0.26801    0.83448    0.80040    1.000
    H813     H        0.26025    0.35978    0.79535    1.000
    C814     C        0.26672    0.38662    0.80067    1.000
    H815     H        0.51974    0.83495    0.31739    1.000
    C816     C        0.49282    0.87355    0.31180    1.000
    H817     H        0.51822    0.61714    0.53772    1.000
    C818     C        0.49164    0.61078    0.57646    1.000
    H819     H        0.51894    0.61440    0.31892    1.000
    C820     C        0.49193    0.60895    0.31282    1.000
    H821     H        0.00423    0.61756    0.31807    1.000
    C822     C        0.04292    0.61120    0.31250    1.000
    H823     H        0.46090    0.85732    0.99328    1.000
    C824     C        0.45924    0.82520    0.99181    1.000
    H825     H        0.46002    0.97578    0.99459    1.000
    H826     H        0.14589    0.85788    0.99463    1.000
    C827     C        0.18102    0.82560    0.99287    1.000
    H828     H        0.02794    0.97645    0.99469    1.000
    H829     H        0.45874    0.97635    0.56091    1.000
    H830     H        0.46065    0.85813    0.67856    1.000
    C831     C        0.45931    0.82595    0.71380    1.000
    H832     H        0.02018    0.41673    0.11827    1.000
    C833     C        0.05208    0.41847    0.12009    1.000
    H834     H        0.02061    0.73146    0.11892    1.000
    C835     C        0.05268    0.69616    0.12056    1.000
    H836     H        0.01892    0.41806    0.43312    1.000
    C837     C        0.05131    0.41958    0.39808    1.000
    Zn838    Zn       0.99902    0.37890    0.71434    1.000
    H839     H        0.88184    0.46799    0.74503    1.000
    C840     C        0.97044    0.48790    0.64150    1.000
    C841     C        0.99240    0.51197    0.64716    1.000
    C842     C        0.93091    0.43569    0.79010    1.000
    C843     C        0.88608    0.46485    0.77822    1.000
    N844     N        0.98498    0.56185    0.62157    1.000
    N845     N        0.84570    0.49049    0.80890    1.000
    N846     N        0.96950    0.43863    0.66179    1.000
    N847     N        0.97825    0.40403    0.76883    1.000
    Zn848    Zn       0.54934    0.82974    0.89799    1.000
    H849     H        0.63722    0.71188    0.89613    1.000
    C850     C        0.65673    0.80158    0.89203    1.000
    N851     N        0.67295    0.82725    0.84222    1.000
    C852     C        0.60498    0.76099    0.83424    1.000
    C853     C        0.63450    0.71631    0.86150    1.000
    C854     C        0.72320    0.81941    0.82382    1.000
    N855     N        0.66129    0.67637    0.84478    1.000
    N856     N        0.52706    0.90482    0.88273    1.000
    N857     N        0.60773    0.80053    0.92238    1.000
    N858     N        0.57213    0.80778    0.84077    1.000
    C859     C        0.97187    0.93717    0.89246    1.000
    N860     N        0.99821    0.94452    0.84281    1.000
    C861     C        0.98964    0.92146    0.82403    1.000
    N862     N        0.97151    0.95592    0.92317    1.000
    H863     H        0.65999    0.96704    0.55055    1.000
    C864     C        0.65697    0.93786    0.50389    1.000
    C865     C        0.68053    0.94323    0.52659    1.000
    N866     N        0.73054    0.91848    0.51880    1.000
    N867     N        0.52759    0.97524    0.60717    1.000
    N868     N        0.60773    0.95746    0.50321    1.000
    H869     H        0.68196    0.64792    0.78915    1.000
    H870     H        0.73952    0.84186    0.62660    1.000
    H871     H        0.81625    0.50911    0.87383    1.000
    C872     C        0.93377    0.39204    0.24298    1.000
    N873     N        0.88122    0.46435    0.26931    1.000
    C874     C        0.92783    0.43081    0.25558    1.000
    H875     H        0.89484    0.35860    0.91073    1.000
    C876     C        0.56151    0.76383    0.42114    1.000
    N877     N        0.63409    0.71141    0.37514    1.000
    C878     C        0.57099    0.94209    0.33156    1.000
    C879     C        0.60013    0.75791    0.37565    1.000
    C880     C        0.55446    0.97825    0.29011    1.000
    N881     N        0.55442    0.90387    0.37492    1.000
    H882     H        0.90854    0.60031    0.91775    1.000
    H883     H        0.83402    0.51526    0.94244    1.000
    C884     C        0.88707    0.54226    0.09548    1.000
    N885     N        0.84180    0.56751    0.16839    1.000
    C886     C        0.93770    0.52096    0.92192    1.000
    C887     C        0.93271    0.57253    0.89784    1.000
    C888     C        0.78875    0.57761    0.97406    1.000
    C889     C        0.80097    0.54976    0.94503    1.000
    C890     C        0.79679    0.44470    0.10402    1.000
    N891     N        0.71899    0.44471    0.11378    1.000
    C892     C        0.84189    0.55449    0.13466    1.000
    N893     N        0.95859    0.58925    0.84806    1.000
    N894     N        0.77099    0.56579    0.91865    1.000
    C895     C        0.75509    0.46655    0.08790    1.000
    N896     N        0.91706    0.49111    0.97116    1.000
    N897     N        0.83974    0.45669    0.08760    1.000
    H898     H        0.79646    0.86878    0.48453    1.000
    Zn899    Zn       0.68312    0.69586    0.58202    1.000
    H900     H        0.76976    0.73791    0.56611    1.000
    H901     H        0.68520    0.66489    0.69916    1.000
    C902     C        0.71175    0.71869    0.46617    1.000
    N903     N        0.73712    0.67293    0.41373    1.000
    C904     C        0.69025    0.76859    0.61081    1.000
    C905     C        0.74195    0.76299    0.58868    1.000
    C906     C        0.74693    0.61947    0.65024    1.000
    C907     C        0.71951    0.63169    0.69490    1.000
    C908     C        0.61431    0.62812    0.64476    1.000
    N909     N        0.61448    0.54996    0.71243    1.000
    C910     C        0.72407    0.67333    0.46027    1.000
    N911     N        0.75876    0.78926    0.59524    1.000
    N912     N        0.73576    0.60143    0.73512    1.000
    C913     C        0.63638    0.58604    0.68043    1.000
    N914     N        0.69737    0.73276    0.50716    1.000
    N915     N        0.66032    0.74787    0.61234    1.000
    N916     N        0.74115    0.64031    0.60292    1.000
    N917     N        0.62613    0.67130    0.60645    1.000
    Zn918    Zn       0.86642    0.88067    0.21577    1.000
    C919     C        0.88889    0.76372    0.24415    1.000
    N920     N        0.84300    0.71121    0.26994    1.000
    C921     C        0.94100    0.90612    0.22248    1.000
    N922     N        0.93384    0.87958    0.27204    1.000
    C923     C        0.78947    0.94779    0.27885    1.000
    N924     N        0.80604    0.98769    0.24780    1.000
    C925     C        0.79926    0.94268    0.14665    1.000
    C926     C        0.84353    0.75781    0.25649    1.000
    C927     C        0.95713    0.88791    0.29078    1.000
    C928     C        0.75785    0.97886    0.16842    1.000
    N929     N        0.90289    0.80483    0.22951    1.000
    N930     N        0.92198    0.90671    0.19184    1.000
    N931     N        0.81009    0.90068    0.27328    1.000
    N932     N        0.84269    0.90466    0.15803    1.000
    C933     C        0.71147    0.39207    0.42119    1.000
    N934     N        0.73711    0.46475    0.37506    1.000
    C935     C        0.61404    0.39987    0.33159    1.000
    N936     N        0.61511    0.40915    0.25342    1.000
    C937     C        0.72398    0.43078    0.37571    1.000
    C938     C        0.63566    0.38278    0.29059    1.000
    N939     N        0.62523    0.38318    0.37515    1.000
    C940     C        0.93377    0.71924    0.09423    1.000
    N941     N        0.88124    0.67315    0.16652    1.000
    C942     C        0.92784    0.67380    0.13297    1.000
    C943     C        0.56056    0.54164    0.46651    1.000
    N944     N        0.63334    0.56717    0.41430    1.000
    C945     C        0.56856    0.44490    0.64508    1.000
    N946     N        0.57857    0.44589    0.71248    1.000
    C947     C        0.59940    0.55399    0.46078    1.000
    C948     C        0.55198    0.46665    0.68129    1.000
    N949     N        0.55167    0.45620    0.60714    1.000
    C950     C        0.56206    0.71853    0.24408    1.000
    N951     N        0.63481    0.67255    0.26967    1.000
    C952     C        0.56999    0.62871    0.14704    1.000
    N953     N        0.57968    0.55043    0.14803    1.000
    C954     C        0.60087    0.67307    0.25660    1.000
    C955     C        0.55353    0.58719    0.16907    1.000
    N956     N        0.55320    0.67228    0.15824    1.000
    H957     H        0.95223    0.62689    0.57016    1.000
    C958     C        0.93331    0.54133    0.42237    1.000
    N959     N        0.88070    0.56702    0.37666    1.000
    C960     C        0.92729    0.55385    0.37702    1.000
    N961     N        0.97440    0.52686    0.43632    1.000
    H962     H        0.79065    0.53731    0.76414    1.000
    C963     C        0.71134    0.76412    0.09308    1.000
    N964     N        0.73665    0.71197    0.16598    1.000
    C965     C        0.68943    0.90717    0.92000    1.000
    N966     N        0.73887    0.88045    0.90372    1.000
    C967     C        0.74704    0.94701    0.97450    1.000
    N968     N        0.71579    0.98687    0.94931    1.000
    C969     C        0.61489    0.94270    0.10127    1.000
    C970     C        0.72354    0.75843    0.13200    1.000
    C971     C        0.75705    0.88898    0.85336    1.000
    C972     C        0.63630    0.97922    0.08462    1.000
    N973     N        0.65933    0.90762    0.96916    1.000
    N974     N        0.62637    0.90464    0.08442    1.000
    H975     H        0.70736    0.62091    0.89790    1.000
    C976     C        0.88917    0.39165    0.46625    1.000
    N977     N        0.84316    0.46409    0.41374    1.000
    C978     C        0.79905    0.40012    0.64546    1.000
    N979     N        0.72039    0.40978    0.71257    1.000
    C980     C        0.84377    0.43047    0.46031    1.000
    C981     C        0.75776    0.38330    0.68141    1.000
    N982     N        0.84295    0.38315    0.60781    1.000
    C983     C        0.93286    0.39036    0.42178    1.000
    C984     C        0.88714    0.45884    0.37387    1.000
    N985     N        0.93312    0.42323    0.37484    1.000
    H986     H        0.65760    0.71409    0.28227    1.000
    C987     C        0.56122    0.76230    0.24557    1.000
    C988     C        0.62988    0.71659    0.27040    1.000
    C989     C        0.57157    0.94116    0.14592    1.000
    N990     N        0.59437    0.76261    0.25896    1.000
    N991     N        0.54987    0.97200    0.17301    1.000
    N992     N        0.55681    0.90234    0.15606    1.000
    H993     H        0.52733    0.72717    0.90914    1.000
    Zn994    Zn       0.86672    0.51181    0.58270    1.000
    H995     H        0.69244    0.47305    0.73310    1.000
    C996     C        0.88912    0.54246    0.46641    1.000
    C997     C        0.84101    0.56772    0.42082    1.000
    C998     C        0.94100    0.51808    0.60880    1.000
    N999     N        0.93355    0.56772    0.58236    1.000
    C1000    C        0.79085    0.57540    0.65013    1.000
    N1001    N        0.80805    0.54505    0.68958    1.000
    C1002    C        0.79899    0.44478    0.64427    1.000
    C1003    C        0.72426    0.45222    0.70774    1.000
    N1004    N        0.84217    0.55597    0.46683    1.000
    C1005    C        0.95655    0.58668    0.59081    1.000
    C1006    C        0.77862    0.56029    0.73062    1.000
    N1007    N        0.76198    0.47196    0.67481    1.000
    N1008    N        0.90350    0.52806    0.50695    1.000
    N1009    N        0.92224    0.48725    0.60937    1.000
    N1010    N        0.81135    0.56994    0.60304    1.000
    N1011    N        0.84292    0.45464    0.60624    1.000
    H1012    H        0.79704    0.86815    0.83760    1.000
    H1013    H        0.74946    0.63499    0.18878    1.000
    H1014    H        0.76679    0.74136    0.91991    1.000
    H1015    H        0.64222    0.52346    0.09124    1.000
    C1016    C        0.71303    0.71962    0.09215    1.000
    C1017    C        0.73769    0.67204    0.16094    1.000
    C1018    C        0.68795    0.77026    0.92298    1.000
    C1019    C        0.73956    0.76503    0.89938    1.000
    C1020    C        0.74510    0.62185    0.97351    1.000
    N1021    N        0.71503    0.63894    0.94696    1.000
    C1022    C        0.61444    0.62900    0.10344    1.000
    C1023    C        0.62172    0.55482    0.10622    1.000
    N1024    N        0.72651    0.67279    0.12534    1.000
    N1025    N        0.75696    0.78982    0.84937    1.000
    C1026    C        0.73012    0.60900    0.92068    1.000
    N1027    N        0.64148    0.59248    0.08213    1.000
    N1028    N        0.65766    0.75067    0.97224    1.000
    N1029    N        0.62448    0.67264    0.08823    1.000
    H1030    H        0.90854    0.86285    0.91899    1.000
    H1031    H        0.83543    0.99658    0.94298    1.000
    C1032    C        0.88931    0.76297    0.09297    1.000
    C1033    C        0.84137    0.71713    0.16122    1.000
    C1034    C        0.93907    0.90783    0.92278    1.000
    C1035    C        0.93327    0.88582    0.89887    1.000
    C1036    C        0.79113    0.94705    0.97411    1.000
    C1037    C        0.80264    0.99211    0.94553    1.000
    C1038    C        0.79962    0.94143    0.10310    1.000
    N1039    N        0.84236    0.76316    0.12574    1.000
    N1040    N        0.95883    0.89305    0.84902    1.000
    N1041    N        0.76331    0.97233    0.08152    1.000
    N1042    N        0.91885    0.90886    0.97202    1.000
    N1043    N        0.84319    0.90283    0.08808    1.000
    H1044    H        0.74961    0.48779    0.41647    1.000
    H1045    H        0.64175    0.38932    0.73300    1.000
    C1046    C        0.71295    0.39129    0.46494    1.000
    C1047    C        0.73780    0.45994    0.41908    1.000
    C1048    C        0.61319    0.40155    0.64364    1.000
    C1049    C        0.62077    0.40424    0.70761    1.000
    N1050    N        0.72632    0.42452    0.46515    1.000
    N1051    N        0.64027    0.38005    0.67443    1.000
    N1052    N        0.62330    0.38659    0.60496    1.000
    C1053    C        0.93274    0.71935    0.24584    1.000
    C1054    C        0.88700    0.67137    0.27113    1.000
    N1055    N        0.93301    0.67242    0.25962    1.000
    N1056    N        0.97335    0.73364    0.23158    1.000
    H1057    H        0.65619    0.57983    0.33734    1.000
    H1058    H        0.55937    0.47265    0.22550    1.000
    C1059    C        0.55969    0.54322    0.42203    1.000
    C1060    C        0.62838    0.56803    0.37440    1.000
    C1061    C        0.57080    0.44465    0.33147    1.000
    C1062    C        0.57390    0.45183    0.25719    1.000
    N1063    N        0.59290    0.55667    0.37520    1.000
    N1064    N        0.54983    0.47181    0.29467    1.000
    N1065    N        0.55555    0.45483    0.37504    1.000
    H1066    H        0.95323    0.86706    0.33088    1.000
    H1067    H        0.65718    0.63452    0.41688    1.000
    H1068    H        0.55576    0.52498    0.73486    1.000
    C1069    C        0.56098    0.71950    0.46508    1.000
    C1070    C        0.62945    0.67165    0.41931    1.000
    C1071    C        0.56957    0.62980    0.64451    1.000
    C1072    C        0.57153    0.55576    0.70877    1.000
    N1073    N        0.59426    0.67268    0.46542    1.000
    N1074    N        0.54708    0.59426    0.67607    1.000
    N1075    N        0.55441    0.67372    0.60621    1.000
    H1076    H        0.88376    0.58021    0.19060    1.000
    C1077    C        0.93108    0.54363    0.09431    1.000
    C1078    C        0.88598    0.56832    0.16303    1.000
    N1079    N        0.93182    0.55687    0.12731    1.000
    Zn1080   Zn       0.68334    0.87833    0.39896    1.000
    H1081    H        0.68327    0.99677    0.36777    1.000
    C1082    C        0.71309    0.76260    0.42190    1.000
    C1083    C        0.73786    0.71704    0.37397    1.000
    C1084    C        0.68798    0.90655    0.47303    1.000
    N1085    N        0.73781    0.88093    0.46514    1.000
    C1086    C        0.74578    0.94771    0.32300    1.000
    C1087    C        0.71790    0.99253    0.33486    1.000
    C1088    C        0.61517    0.94116    0.33218    1.000
    N1089    N        0.72636    0.76301    0.37503    1.000
    C1090    C        0.75614    0.88883    0.48914    1.000
    N1091    N        0.64178    0.97247    0.29612    1.000
    N1092    N        0.69902    0.80315    0.43613    1.000
    N1093    N        0.65774    0.90754    0.45323    1.000
    N1094    N        0.74038    0.90041    0.34399    1.000
    N1095    N        0.62533    0.90257    0.37573    1.000
    H1096    H        0.80417    0.48651    0.28284    1.000
    H1097    H        0.69351    0.38643    0.17535    1.000
    C1098    C        0.88929    0.39083    0.24496    1.000
    C1099    C        0.84134    0.45909    0.27048    1.000
    C1100    C        0.79822    0.40018    0.14750    1.000
    C1101    C        0.72439    0.40205    0.15493    1.000
    N1102    N        0.84233    0.42364    0.25890    1.000
    N1103    N        0.76264    0.37777    0.17395    1.000
    N1104    N        0.84197    0.38527    0.15727    1.000
    Zn1105   Zn       0.99676    0.38157    0.89868    1.000
    C1106    C        0.97039    0.48897    0.89175    1.000
    N1107    N        0.99713    0.50458    0.84221    1.000
    C1108    C        0.93078    0.43465    0.83460    1.000
    N1109    N        0.89095    0.45984    0.86586    1.000
    C1110    C        0.98911    0.55489    0.82322    1.000
    C1111    C        0.84992    0.48702    0.85049    1.000
    N1112    N        0.96958    0.43998    0.92250    1.000
    N1113    N        0.97781    0.40219    0.84028    1.000
    Zn1114   Zn       0.55107    0.82854    0.71363    1.000
    C1115    C        0.65825    0.80193    0.63956    1.000
    N1116    N        0.67398    0.82899    0.64618    1.000
    C1117    C        0.60548    0.76163    0.78969    1.000
    N1118    N        0.63234    0.72247    0.77198    1.000
    C1119    C        0.72435    0.82060    0.62305    1.000
    C1120    C        0.65903    0.68126    0.80148    1.000
    N1121    N        0.52559    0.90408    0.67747    1.000
    N1122    N        0.60918    0.80136    0.65852    1.000
    N1123    N        0.57342    0.80883    0.76931    1.000
    H1124    H        0.72307    0.79025    0.13635    1.000
    H1125    H        0.60509    0.63726    0.25647    1.000
    H1126    H        0.67122    0.58061    0.68345    1.000
    H1127    H        0.60425    0.78960    0.33979    1.000
    H1128    H        0.75386    0.98283    0.20210    1.000
    H1129    H        0.80597    0.55413    0.13941    1.000
    C1130    C        0.97044    0.93882    0.19208    1.000
    C1131    C        0.99254    0.94453    0.21598    1.000
    N1132    N        0.98545    0.91881    0.26578    1.000
    N1133    N        0.96930    0.95902    0.14288    1.000
    H1134    H        0.95969    0.43525    0.25495    1.000
    H1135    H        0.66147    0.97085    0.80970    1.000
    C1136    C        0.65860    0.94030    0.88871    1.000
    C1137    C        0.68190    0.94598    0.83700    1.000
    N1138    N        0.73155    0.92008    0.81959    1.000
    N1139    N        0.52591    0.97558    0.88400    1.000
    N1140    N        0.60972    0.96071    0.91921    1.000
    H1141    H        0.72375    0.43482    0.34002    1.000
    H1142    H        0.73881    0.83949    0.78350    1.000
    H1143    H        0.60369    0.55356    0.49262    1.000
    H1144    H        0.58244    0.90284    0.90266    1.000
    C1145    C        0.54885    0.92529    0.89118    1.000
    H1146    H        0.58270    0.90172    0.60515    1.000
    C1147    C        0.54902    0.92439    0.62750    1.000
    H1148    H        0.67923    0.80548    0.50927    1.000
    C1149    C        0.69055    0.78298    0.48676    1.000
    H1150    H        0.97536    0.80707    0.21152    1.000
    C1151    C        0.95299    0.78447    0.22284    1.000
    H1152    H        0.97668    0.50823    0.50914    1.000
    C1153    C        0.95412    0.51971    0.48662    1.000
    H1154    H        0.93075    0.40837    0.65140    1.000
    C1155    C        0.94004    0.44098    0.64169    1.000
    H1156    H        0.57862    0.76010    0.00173    1.000
    C1157    C        0.61098    0.76953    0.96926    1.000
    H1158    H        0.92957    0.94753    0.00208    1.000
    C1159    C        0.93915    0.93824    0.96952    1.000
    H1160    H        0.57844    0.94806    0.46283    1.000
    C1161    C        0.61083    0.93860    0.47230    1.000
    H1162    H        0.92725    0.41176    0.00133    1.000
    C1163    C        0.93709    0.44390    0.96876    1.000
    H1164    H        0.58081    0.75864    0.65103    1.000
    C1165    C        0.61303    0.76843    0.64146    1.000
    H1166    H        0.93026    0.94848    0.11301    1.000
    C1167    C        0.93971    0.93892    0.14546    1.000
    H1168    H        0.58075    0.94980    0.99860    1.000
    C1169    C        0.61287    0.94023    0.96610    1.000
    H1170    H        0.52767    0.87286    0.79597    1.000
    C1171    C        0.55470    0.83432    0.80123    1.000
    H1172    H        0.78641    0.61444    0.53839    1.000
    C1173    C        0.78035    0.60906    0.57693    1.000
    H1174    H        0.78494    0.83559    0.31961    1.000
    C1175    C        0.77928    0.87433    0.31307    1.000
    H1176    H        0.58641    0.84967    0.43420    1.000
    C1177    C        0.58830    0.88194    0.39906    1.000
    H1178    H        0.89956    0.41978    0.11872    1.000
    C1179    C        0.86456    0.42035    0.12074    1.000
    H1180    H        0.58857    0.73162    0.55311    1.000
    C1181    C        0.58946    0.69630    0.58515    1.000
    H1182    H        0.90180    0.85014    0.12152    1.000
    C1183    C        0.86670    0.88245    0.12227    1.000
    H1184    H        0.58850    0.41552    0.43396    1.000
    C1185    C        0.58943    0.41742    0.39885    1.000
    H1186    H        0.58377    0.41979    0.55248    1.000
    C1187    C        0.58580    0.42060    0.58477    1.000
    H1188    H        0.58510    0.73149    0.12130    1.000
    C1189    C        0.58714    0.69628    0.12230    1.000
    H1190    H        0.59010    0.84979    0.11659    1.000
    C1191    C        0.59088    0.88215    0.11856    1.000
    H1192    H        0.90239    0.41495    0.55424    1.000
    C1193    C        0.86689    0.41714    0.58607    1.000
    H1194    H        0.29756    0.22137    0.69500    1.000
    H1195    H        0.32429    0.27203    0.77272    1.000
    H1196    H        0.88460    0.48643    0.33673    1.000
    H1197    H        0.80382    0.57984    0.41839    1.000
    H1198    H        0.80418    0.71455    0.18861    1.000
    H1199    H        0.88450    0.63416    0.28340    1.000
    H1200    H        0.74974    0.71465    0.33680    1.000
