# CIF file generated by openbabel 3.1.0, see https://openbabel.org
data_I
_chemical_name_common 'image0'
_cell_length_a 10.2904
_cell_length_b 13.2061
_cell_length_c 24.8674
_cell_angle_alpha 90
_cell_angle_beta 90.922
_cell_angle_gamma 90
_space_group_name_H-M_alt 'P 1'
_space_group_name_Hall 'P 1'
loop_
    _symmetry_equiv_pos_as_xyz
    x,y,z
loop_
    _atom_site_label
    _atom_site_type_symbol
    _atom_site_fract_x
    _atom_site_fract_y
    _atom_site_fract_z
    _atom_site_occupancy
    Ag1      Ag       0.18870    0.60735    0.05483    1.000
    S1       S        0.41300    0.78970    0.07487    1.000
    O1       O        0.40630    0.70240    0.04100    1.000
    O2       O        0.32840    0.78870    0.11940    1.000
    O3       O        0.53820    0.82630    0.08860    1.000
    C1       C        0.34960    0.88680    0.03210    1.000
    F1       F        0.22740    0.86560    0.01950    1.000
    F2       F        0.41440    0.89490    0.98720    1.000
    F3       F        0.35840    0.97730    0.05640    1.000
    Si1      Si       0.82576    0.17276    0.21279    1.000
    N1       N        0.03420    0.70380    0.08991    1.000
    N2       N        0.32760    0.49370    0.09472    1.000
    N3       N        0.67060    0.96760    0.47301    1.000
    C2       C        0.87110    0.05420    0.17548    1.000
    C3       C        0.00120    0.02550    0.17442    1.000
    H1       H        0.06530    0.06940    0.18950    1.000
    C4       C        0.03960    0.93480    0.15198    1.000
    H2       H        0.12890    0.91650    0.15190    1.000
    C5       C        0.94730    0.87070    0.12963    1.000
    C6       C        0.81650    0.89690    0.12950    1.000
    H3       H        0.75320    0.85270    0.11410    1.000
    C7       C        0.77950    0.98800    0.15213    1.000
    H4       H        0.69020    0.00620    0.15180    1.000
    C8       C        0.99190    0.77690    0.10646    1.000
    C9       C        0.68960    0.24620    0.18000    1.000
    C10      C        0.65590    0.23960    0.12569    1.000
    H5       H        0.69720    0.19030    0.10400    1.000
    C11      C        0.56360    0.30310    0.10246    1.000
    H6       H        0.54180    0.29770    0.06530    1.000
    C12      C        0.50350    0.37480    0.13446    1.000
    C13      C        0.53450    0.38350    0.18903    1.000
    H7       H        0.49280    0.43250    0.21080    1.000
    C14      C        0.62710    0.31940    0.21074    1.000
    H8       H        0.64910    0.32520    0.24790    1.000
    C15      C        0.40670    0.44130    0.11152    1.000
    C16      C        0.77530    0.12990    0.28127    1.000
    C17      C        0.66440    0.07020    0.28812    1.000
    H9       H        0.60810    0.05790    0.25820    1.000
    C18      C        0.63510    0.02890    0.33712    1.000
    H10      H        0.55980    0.98800    0.34090    1.000
    C19      C        0.71580    0.04730    0.38087    1.000
    C20      C        0.82450    0.10820    0.37629    1.000
    H11      H        0.87880    0.12190    0.40670    1.000
    C21      C        0.85250    0.14860    0.32646    1.000
    H12      H        0.92690    0.19060    0.32310    1.000
    C22      C        0.68870    0.00340    0.43221    1.000
    C23      C        0.96720    0.25940    0.21878    1.000
    H13      H        0.99940    0.27500    0.18280    1.000
    H14      H        0.03620    0.22670    0.24010    1.000
    H15      H        0.94060    0.32210    0.23650    1.000
    Ag2      Ag       0.16360    0.60580    0.05230    1.000
    S2       S        0.40610    0.76990    0.05720    1.000
    O4       O        0.30770    0.73260    0.02110    1.000
    O5       O        0.38650    0.75750    0.11310    1.000
    O6       O        0.53400    0.75120    0.03950    1.000
    C24      C        0.39180    0.90330    0.04640    1.000
    F4       F        0.27560    0.93110    0.06340    1.000
    F5       F        0.39900    0.92760    0.99540    1.000
    F6       F        0.49190    0.95010    0.07130    1.000
    Ag3      Ag       0.68870    0.89265    0.55483    1.000
    S3       S        0.91300    0.71030    0.57487    1.000
    O7       O        0.90630    0.79760    0.54100    1.000
    O8       O        0.82840    0.71130    0.61940    1.000
    O9       O        0.03820    0.67370    0.58860    1.000
    C25      C        0.84960    0.61320    0.53210    1.000
    F7       F        0.72740    0.63440    0.51950    1.000
    F8       F        0.91440    0.60510    0.48720    1.000
    F9       F        0.85840    0.52270    0.55640    1.000
    Si2      Si       0.32576    0.32724    0.71279    1.000
    N4       N        0.53420    0.79620    0.58991    1.000
    N5       N        0.82760    0.00630    0.59472    1.000
    N6       N        0.17060    0.53240    0.97301    1.000
    C26      C        0.37110    0.44580    0.67548    1.000
    C27      C        0.50120    0.47450    0.67442    1.000
    H16      H        0.56530    0.43060    0.68950    1.000
    C28      C        0.53960    0.56520    0.65198    1.000
    H17      H        0.62890    0.58350    0.65190    1.000
    C29      C        0.44730    0.62930    0.62963    1.000
    C30      C        0.31650    0.60310    0.62950    1.000
    H18      H        0.25320    0.64730    0.61410    1.000
    C31      C        0.27950    0.51200    0.65213    1.000
    H19      H        0.19020    0.49380    0.65180    1.000
    C32      C        0.49190    0.72310    0.60646    1.000
    C33      C        0.18960    0.25380    0.68000    1.000
    C34      C        0.15590    0.26040    0.62569    1.000
    H20      H        0.19720    0.30970    0.60400    1.000
    C35      C        0.06360    0.19690    0.60246    1.000
    H21      H        0.04180    0.20230    0.56530    1.000
    C36      C        0.00350    0.12520    0.63446    1.000
    C37      C        0.03450    0.11650    0.68903    1.000
    H22      H        0.99280    0.06750    0.71080    1.000
    C38      C        0.12710    0.18060    0.71074    1.000
    H23      H        0.14910    0.17480    0.74790    1.000
    C39      C        0.90670    0.05870    0.61152    1.000
    C40      C        0.27530    0.37010    0.78127    1.000
    C41      C        0.16440    0.42980    0.78812    1.000
    H24      H        0.10810    0.44210    0.75820    1.000
    C42      C        0.13510    0.47110    0.83712    1.000
    H25      H        0.05980    0.51200    0.84090    1.000
    C43      C        0.21580    0.45270    0.88087    1.000
    C44      C        0.32450    0.39180    0.87629    1.000
    H26      H        0.37880    0.37810    0.90670    1.000
    C45      C        0.35250    0.35140    0.82646    1.000
    H27      H        0.42690    0.30940    0.82310    1.000
    C46      C        0.18870    0.49660    0.93221    1.000
    C47      C        0.46720    0.24060    0.71878    1.000
    H28      H        0.49940    0.22500    0.68280    1.000
    H29      H        0.53620    0.27330    0.74010    1.000
    H30      H        0.44060    0.17790    0.73650    1.000
    Ag4      Ag       0.66360    0.89420    0.55230    1.000
    S4       S        0.90610    0.73010    0.55720    1.000
    O10      O        0.80770    0.76740    0.52110    1.000
    O11      O        0.88650    0.74250    0.61310    1.000
    O12      O        0.03400    0.74880    0.53950    1.000
    C48      C        0.89180    0.59670    0.54640    1.000
    F10      F        0.77560    0.56890    0.56340    1.000
    F11      F        0.89900    0.57240    0.49540    1.000
    F12      F        0.99190    0.54990    0.57130    1.000
    Ag5      Ag       0.31130    0.10735    0.44517    1.000
    S5       S        0.08700    0.28970    0.42513    1.000
    O13      O        0.09370    0.20240    0.45900    1.000
    O14      O        0.17160    0.28870    0.38060    1.000
    O15      O        0.96180    0.32630    0.41140    1.000
    C49      C        0.15040    0.38680    0.46790    1.000
    F13      F        0.27260    0.36560    0.48050    1.000
    F14      F        0.08560    0.39490    0.51280    1.000
    F15      F        0.14160    0.47730    0.44360    1.000
    Si3      Si       0.67424    0.67276    0.28721    1.000
    N7       N        0.46580    0.20380    0.41009    1.000
    N8       N        0.17240    0.99370    0.40528    1.000
    N9       N        0.82940    0.46760    0.02699    1.000
    C50      C        0.62890    0.55420    0.32452    1.000
    C51      C        0.49880    0.52550    0.32558    1.000
    H31      H        0.43470    0.56940    0.31050    1.000
    C52      C        0.46040    0.43480    0.34802    1.000
    H32      H        0.37110    0.41650    0.34810    1.000
    C53      C        0.55270    0.37070    0.37037    1.000
    C54      C        0.68350    0.39690    0.37050    1.000
    H33      H        0.74680    0.35270    0.38590    1.000
    C55      C        0.72050    0.48800    0.34787    1.000
    H34      H        0.80980    0.50620    0.34820    1.000
    C56      C        0.50810    0.27690    0.39354    1.000
    C57      C        0.81040    0.74620    0.32000    1.000
    C58      C        0.84410    0.73960    0.37431    1.000
    H35      H        0.80280    0.69030    0.39600    1.000
    C59      C        0.93640    0.80310    0.39754    1.000
    H36      H        0.95820    0.79770    0.43470    1.000
    C60      C        0.99650    0.87480    0.36554    1.000
    C61      C        0.96550    0.88350    0.31097    1.000
    H37      H        0.00720    0.93250    0.28920    1.000
    C62      C        0.87290    0.81940    0.28926    1.000
    H38      H        0.85090    0.82520    0.25210    1.000
    C63      C        0.09330    0.94130    0.38848    1.000
    C64      C        0.72470    0.62990    0.21873    1.000
    C65      C        0.83560    0.57020    0.21188    1.000
    H39      H        0.89190    0.55790    0.24180    1.000
    C66      C        0.86490    0.52890    0.16288    1.000
    H40      H        0.94020    0.48800    0.15910    1.000
    C67      C        0.78420    0.54730    0.11913    1.000
    C68      C        0.67550    0.60820    0.12371    1.000
    H41      H        0.62120    0.62190    0.09330    1.000
    C69      C        0.64750    0.64860    0.17354    1.000
    H42      H        0.57310    0.69060    0.17690    1.000
    C70      C        0.81130    0.50340    0.06779    1.000
    C71      C        0.53280    0.75940    0.28122    1.000
    H43      H        0.50060    0.77500    0.31720    1.000
    H44      H        0.46380    0.72670    0.25990    1.000
    H45      H        0.55940    0.82210    0.26350    1.000
    Ag6      Ag       0.33640    0.10580    0.44770    1.000
    S6       S        0.09390    0.26990    0.44280    1.000
    O16      O        0.19230    0.23260    0.47890    1.000
    O17      O        0.11350    0.25750    0.38690    1.000
    O18      O        0.96600    0.25120    0.46050    1.000
    C72      C        0.10820    0.40330    0.45360    1.000
    F16      F        0.22440    0.43110    0.43660    1.000
    F17      F        0.10100    0.42760    0.50460    1.000
    F18      F        0.00810    0.45010    0.42870    1.000
    Ag7      Ag       0.81130    0.39265    0.94517    1.000
    S7       S        0.58700    0.21030    0.92513    1.000
    O19      O        0.59370    0.29760    0.95900    1.000
    O20      O        0.67160    0.21130    0.88060    1.000
    O21      O        0.46180    0.17370    0.91140    1.000
    C73      C        0.65040    0.11320    0.96790    1.000
    F19      F        0.77260    0.13440    0.98050    1.000
    F20      F        0.58560    0.10510    0.01280    1.000
    F21      F        0.64160    0.02270    0.94360    1.000
    Si4      Si       0.17424    0.82724    0.78721    1.000
    N10      N        0.96580    0.29620    0.91009    1.000
    N11      N        0.67240    0.50630    0.90528    1.000
    N12      N        0.32940    0.03240    0.52699    1.000
    C74      C        0.12890    0.94580    0.82452    1.000
    C75      C        0.99880    0.97450    0.82558    1.000
    H46      H        0.93470    0.93060    0.81050    1.000
    C76      C        0.96040    0.06520    0.84802    1.000
    H47      H        0.87110    0.08350    0.84810    1.000
    C77      C        0.05270    0.12930    0.87037    1.000
    C78      C        0.18350    0.10310    0.87050    1.000
    H48      H        0.24680    0.14730    0.88590    1.000
    C79      C        0.22050    0.01200    0.84787    1.000
    H49      H        0.30980    0.99380    0.84820    1.000
    C80      C        0.00810    0.22310    0.89354    1.000
    C81      C        0.31040    0.75380    0.82000    1.000
    C82      C        0.34410    0.76040    0.87431    1.000
    H50      H        0.30280    0.80970    0.89600    1.000
    C83      C        0.43640    0.69690    0.89754    1.000
    H51      H        0.45820    0.70230    0.93470    1.000
    C84      C        0.49650    0.62520    0.86554    1.000
    C85      C        0.46550    0.61650    0.81097    1.000
    H52      H        0.50720    0.56750    0.78920    1.000
    C86      C        0.37290    0.68060    0.78926    1.000
    H53      H        0.35090    0.67480    0.75210    1.000
    C87      C        0.59330    0.55870    0.88848    1.000
    C88      C        0.22470    0.87010    0.71873    1.000
    C89      C        0.33560    0.92980    0.71188    1.000
    H54      H        0.39190    0.94210    0.74180    1.000
    C90      C        0.36490    0.97110    0.66288    1.000
    H55      H        0.44020    0.01200    0.65910    1.000
    C91      C        0.28420    0.95270    0.61913    1.000
    C92      C        0.17550    0.89180    0.62371    1.000
    H56      H        0.12120    0.87810    0.59330    1.000
    C93      C        0.14750    0.85140    0.67354    1.000
    H57      H        0.07310    0.80940    0.67690    1.000
    C94      C        0.31130    0.99660    0.56779    1.000
    C95      C        0.03280    0.74060    0.78122    1.000
    H58      H        0.00060    0.72500    0.81720    1.000
    H59      H        0.96380    0.77330    0.75990    1.000
    H60      H        0.05940    0.67790    0.76350    1.000
    Ag8      Ag       0.83640    0.39420    0.94770    1.000
    S8       S        0.59390    0.23010    0.94280    1.000
    O22      O        0.69230    0.26740    0.97890    1.000
    O23      O        0.61350    0.24250    0.88690    1.000
    O24      O        0.46600    0.24880    0.96050    1.000
    C96      C        0.60820    0.09670    0.95360    1.000
    F22      F        0.72440    0.06890    0.93660    1.000
    F23      F        0.60100    0.07240    0.00460    1.000
    F24      F        0.50810    0.04990    0.92870    1.000
