# CIF file generated by openbabel 3.1.0, see https://openbabel.org
data_I
_chemical_name_common 'PEPLEC_clean'
_cell_length_a 6.7849
_cell_length_b 13.0309
_cell_length_c 16.851
_cell_angle_alpha 90
_cell_angle_beta 90
_cell_angle_gamma 90
_space_group_name_H-M_alt 'P 1'
_space_group_name_Hall 'P 1'
loop_
    _symmetry_equiv_pos_as_xyz
    x,y,z
loop_
    _atom_site_label
    _atom_site_type_symbol
    _atom_site_fract_x
    _atom_site_fract_y
    _atom_site_fract_z
    _atom_site_occupancy
    V1       V        0.94078    0.23536    0.50034    1.000
    V2       V        0.55922    0.76464    0.00034    1.000
    V3       V        0.05922    0.73536    0.99966    1.000
    V4       V        0.44078    0.26464    0.49966    1.000
    H1       H        0.03040    0.41720    0.29610    1.000
    H2       H        0.05140    0.52070    0.18500    1.000
    H3       H        0.46580    0.57040    0.19750    1.000
    H4       H        0.45040    0.47070    0.31110    1.000
    H5       H        0.46960    0.58280    0.79610    1.000
    H6       H        0.44860    0.47930    0.68500    1.000
    H7       H        0.03420    0.42960    0.69750    1.000
    H8       H        0.04960    0.52930    0.81110    1.000
    H9       H        0.96960    0.91720    0.20390    1.000
    H10      H        0.94860    0.02070    0.31500    1.000
    H11      H        0.53420    0.07040    0.30250    1.000
    H12      H        0.54960    0.97070    0.18890    1.000
    H13      H        0.53040    0.08280    0.70390    1.000
    H14      H        0.55140    0.97930    0.81500    1.000
    H15      H        0.96580    0.92960    0.80250    1.000
    H16      H        0.95040    0.02930    0.68890    1.000
    C1       C        0.72960    0.36770    0.38699    1.000
    C2       C        0.73930    0.43480    0.31463    1.000
    C3       C        0.91780    0.44920    0.27657    1.000
    C4       C        0.93070    0.51060    0.20994    1.000
    C5       C        0.57980    0.54090    0.21787    1.000
    C6       C        0.57030    0.48050    0.28543    1.000
    C7       C        0.77200    0.62470    0.10949    1.000
    C8       C        0.76040    0.55740    0.18045    1.000
    C9       C        0.77040    0.63230    0.88699    1.000
    C10      C        0.76070    0.56520    0.81463    1.000
    C11      C        0.58220    0.55080    0.77657    1.000
    C12      C        0.56930    0.48940    0.70994    1.000
    C13      C        0.92020    0.45910    0.71787    1.000
    C14      C        0.92970    0.51950    0.78543    1.000
    C15      C        0.72800    0.37530    0.60949    1.000
    C16      C        0.73960    0.44260    0.68045    1.000
    C17      C        0.27040    0.86770    0.11301    1.000
    C18      C        0.26070    0.93480    0.18537    1.000
    C19      C        0.08220    0.94920    0.22343    1.000
    C20      C        0.06930    0.01060    0.29006    1.000
    C21      C        0.42020    0.04090    0.28213    1.000
    C22      C        0.42970    0.98050    0.21457    1.000
    C23      C        0.22800    0.12470    0.39051    1.000
    C24      C        0.23960    0.05740    0.31955    1.000
    C25      C        0.22960    0.13230    0.61301    1.000
    C26      C        0.23930    0.06520    0.68537    1.000
    C27      C        0.41780    0.05080    0.72343    1.000
    C28      C        0.43070    0.98940    0.79006    1.000
    C29      C        0.07980    0.95910    0.78213    1.000
    C30      C        0.07030    0.01950    0.71457    1.000
    C31      C        0.27200    0.87530    0.89051    1.000
    C32      C        0.26040    0.94260    0.81955    1.000
    O1       O        0.72116    0.18710    0.50119    1.000
    O2       O        0.89010    0.33489    0.41407    1.000
    O3       O        0.93960    0.64397    0.08128    1.000
    O4       O        0.55960    0.34897    0.41396    1.000
    O5       O        0.61100    0.65977    0.08309    1.000
    O6       O        0.77884    0.81290    0.00119    1.000
    O7       O        0.60990    0.66511    0.91407    1.000
    O8       O        0.56040    0.35603    0.58128    1.000
    O9       O        0.94040    0.65103    0.91396    1.000
    O10      O        0.88900    0.34023    0.58309    1.000
    O11      O        0.27884    0.68710    0.99881    1.000
    O12      O        0.10990    0.83489    0.08593    1.000
    O13      O        0.06040    0.14397    0.41872    1.000
    O14      O        0.44040    0.84897    0.08604    1.000
    O15      O        0.38900    0.15977    0.41691    1.000
    O16      O        0.22116    0.31290    0.49881    1.000
    O17      O        0.39010    0.16511    0.58593    1.000
    O18      O        0.43960    0.85603    0.91872    1.000
    O19      O        0.05960    0.15103    0.58604    1.000
    O20      O        0.11100    0.84023    0.91691    1.000
