# CIF file generated by openbabel 3.1.0, see https://openbabel.org
data_I
_chemical_name_common 'image0'
_cell_length_a 19.6721
_cell_length_b 9.2201
_cell_length_c 9.7478
_cell_angle_alpha 90
_cell_angle_beta 95.6
_cell_angle_gamma 90
_space_group_name_H-M_alt 'P 1'
_space_group_name_Hall 'P 1'
loop_
    _symmetry_equiv_pos_as_xyz
    x,y,z
loop_
    _atom_site_label
    _atom_site_type_symbol
    _atom_site_fract_x
    _atom_site_fract_y
    _atom_site_fract_z
    _atom_site_occupancy
    P1       P        0.42050    0.11680    0.07710    1.000
    P2       P        0.40050    0.83180    0.71420    1.000
    P3       P        0.16170    0.84480    0.98580    1.000
    P4       P        0.04790    0.15360    0.28770    1.000
    Al1      Al       0.05630    0.08190    0.99130    1.000
    Al2      Al       0.53040    0.87220    0.21840    1.000
    Al3      Al       0.91960    0.33910    0.26510    1.000
    Al4      Al       0.32520    0.86990    0.98770    1.000
    O1       O        0.07830    0.18390    0.14970    1.000
    O2       O        0.97030    0.17450    0.26870    1.000
    O3       O        0.13070    0.98980    0.93560    1.000
    O4       O        0.35150    0.84730    0.82460    1.000
    O5       O        0.23820    0.85610    0.97440    1.000
    O6       O        0.36110    0.77540    0.58310    1.000
    O7       O        0.47620    0.01020    0.12880    1.000
    O8       O        0.13280    0.72000    0.89420    1.000
    O9       O        0.43340    0.18180    0.93610    1.000
    O10      O        0.42780    0.98210    0.67580    1.000
    O11      O        0.06500    0.99820    0.34120    1.000
    O12      O        0.02930    0.91890    0.08610    1.000
    O13      O        0.41260    0.24050    0.18070    1.000
    O14      O        0.15310    0.81600    0.13850    1.000
    O15      O        0.35210    0.03580    0.06030    1.000
    O16      O        0.45600    0.72230    0.76570    1.000
    O17      O        0.08170    0.25890    0.39360    1.000
    P5       P        0.57950    0.61680    0.42290    1.000
    P6       P        0.59950    0.33180    0.78580    1.000
    P7       P        0.83830    0.34480    0.51420    1.000
    P8       P        0.95210    0.65360    0.21230    1.000
    Al5      Al       0.94370    0.58190    0.50870    1.000
    Al6      Al       0.46960    0.37220    0.28160    1.000
    Al7      Al       0.08040    0.83910    0.23490    1.000
    Al8      Al       0.67480    0.36990    0.51230    1.000
    O18      O        0.92170    0.68390    0.35030    1.000
    O19      O        0.02970    0.67450    0.23130    1.000
    O20      O        0.86930    0.48980    0.56440    1.000
    O21      O        0.64850    0.34730    0.67540    1.000
    O22      O        0.76180    0.35610    0.52560    1.000
    O23      O        0.63890    0.27540    0.91690    1.000
    O24      O        0.52380    0.51020    0.37120    1.000
    O25      O        0.86720    0.22000    0.60580    1.000
    O26      O        0.56660    0.68180    0.56390    1.000
    O27      O        0.57220    0.48210    0.82420    1.000
    O28      O        0.93500    0.49820    0.15880    1.000
    O29      O        0.97070    0.41890    0.41390    1.000
    O30      O        0.58740    0.74050    0.31930    1.000
    O31      O        0.84690    0.31600    0.36150    1.000
    O32      O        0.64790    0.53580    0.43970    1.000
    O33      O        0.54400    0.22230    0.73430    1.000
    O34      O        0.91830    0.75890    0.10640    1.000
    P9       P        0.57950    0.88320    0.92290    1.000
    P10      P        0.59950    0.16820    0.28580    1.000
    P11      P        0.83830    0.15520    0.01420    1.000
    P12      P        0.95210    0.84640    0.71230    1.000
    Al9      Al       0.94370    0.91810    0.00870    1.000
    Al10     Al       0.46960    0.12780    0.78160    1.000
    Al11     Al       0.08040    0.66090    0.73490    1.000
    Al12     Al       0.67480    0.13010    0.01230    1.000
    O35      O        0.92170    0.81610    0.85030    1.000
    O36      O        0.02970    0.82550    0.73130    1.000
    O37      O        0.86930    0.01020    0.06440    1.000
    O38      O        0.64850    0.15270    0.17540    1.000
    O39      O        0.76180    0.14390    0.02560    1.000
    O40      O        0.63890    0.22460    0.41690    1.000
    O41      O        0.52380    0.98980    0.87120    1.000
    O42      O        0.86720    0.28000    0.10580    1.000
    O43      O        0.56660    0.81820    0.06390    1.000
    O44      O        0.57220    0.01790    0.32420    1.000
    O45      O        0.93500    0.00180    0.65880    1.000
    O46      O        0.97070    0.08110    0.91390    1.000
    O47      O        0.58740    0.75950    0.81930    1.000
    O48      O        0.84690    0.18400    0.86150    1.000
    O49      O        0.64790    0.96420    0.93970    1.000
    O50      O        0.54400    0.27770    0.23430    1.000
    O51      O        0.91830    0.74110    0.60640    1.000
    P13      P        0.42050    0.38320    0.57710    1.000
    P14      P        0.40050    0.66820    0.21420    1.000
    P15      P        0.16170    0.65520    0.48580    1.000
    P16      P        0.04790    0.34640    0.78770    1.000
    Al13     Al       0.05630    0.41810    0.49130    1.000
    Al14     Al       0.53040    0.62780    0.71840    1.000
    Al15     Al       0.91960    0.16090    0.76510    1.000
    Al16     Al       0.32520    0.63010    0.48770    1.000
    O52      O        0.07830    0.31610    0.64970    1.000
    O53      O        0.97030    0.32550    0.76870    1.000
    O54      O        0.13070    0.51020    0.43560    1.000
    O55      O        0.35150    0.65270    0.32460    1.000
    O56      O        0.23820    0.64390    0.47440    1.000
    O57      O        0.36110    0.72460    0.08310    1.000
    O58      O        0.47620    0.48980    0.62880    1.000
    O59      O        0.13280    0.78000    0.39420    1.000
    O60      O        0.43340    0.31820    0.43610    1.000
    O61      O        0.42780    0.51790    0.17580    1.000
    O62      O        0.06500    0.50180    0.84120    1.000
    O63      O        0.02930    0.58110    0.58610    1.000
    O64      O        0.41260    0.25950    0.68070    1.000
    O65      O        0.15310    0.68400    0.63850    1.000
    O66      O        0.35210    0.46420    0.56030    1.000
    O67      O        0.45600    0.77770    0.26570    1.000
    O68      O        0.08170    0.24110    0.89360    1.000
