# CIF file generated by openbabel 3.1.0, see https://openbabel.org
data_I
_chemical_name_common 'RUBTAK01_clean_h'
_cell_length_a 14.8174
_cell_length_b 14.8174
_cell_length_c 14.8174
_cell_angle_alpha 60
_cell_angle_beta 60
_cell_angle_gamma 60
_space_group_name_H-M_alt 'P 1'
_space_group_name_Hall 'P 1'
loop_
    _symmetry_equiv_pos_as_xyz
    x,y,z
loop_
    _atom_site_label
    _atom_site_type_symbol
    _atom_site_fract_x
    _atom_site_fract_y
    _atom_site_fract_z
    _atom_site_occupancy
    C1       C        0.55230    0.07750    0.44770    1.000
    O2       O        0.72690    0.92450    0.27310    1.000
    H3       H        0.59077    0.14413    0.40923    1.000
    C4       C        0.07750    0.55230    0.92250    1.000
    O5       O        0.92450    0.72690    0.07550    1.000
    H6       H        0.14413    0.59077    0.85587    1.000
    C7       C        0.44770    0.92250    0.55230    1.000
    O8       O        0.27310    0.07550    0.72690    1.000
    H9       H        0.40923    0.85587    0.59077    1.000
    C10      C        0.92250    0.44770    0.07750    1.000
    O11      O        0.07550    0.27310    0.92450    1.000
    H12      H        0.85587    0.40923    0.14413    1.000
    C13      C        0.44770    0.55230    0.07750    1.000
    O14      O        0.27310    0.72690    0.92450    1.000
    H15      H        0.40923    0.59077    0.14413    1.000
    C16      C        0.92250    0.07750    0.55230    1.000
    O17      O        0.07550    0.92450    0.72690    1.000
    H18      H        0.85587    0.14413    0.59077    1.000
    C19      C        0.55230    0.44770    0.92250    1.000
    O20      O        0.72690    0.27310    0.07550    1.000
    H21      H        0.59077    0.40923    0.85587    1.000
    C22      C        0.07750    0.92250    0.44770    1.000
    O23      O        0.92450    0.07550    0.27310    1.000
    H24      H        0.14413    0.85587    0.40923    1.000
    C25      C        0.07750    0.44770    0.55230    1.000
    O26      O        0.92450    0.27310    0.72690    1.000
    H27      H        0.14413    0.40923    0.59077    1.000
    C28      C        0.55230    0.92250    0.07750    1.000
    O29      O        0.72690    0.07550    0.92450    1.000
    H30      H        0.59077    0.85587    0.14413    1.000
    C31      C        0.92250    0.55230    0.44770    1.000
    O32      O        0.07550    0.72690    0.27310    1.000
    H33      H        0.85587    0.59077    0.40923    1.000
    C34      C        0.44770    0.07750    0.92250    1.000
    O35      O        0.27310    0.92450    0.07550    1.000
    H36      H        0.40923    0.14413    0.85587    1.000
    C37      C        0.07750    0.55230    0.44770    1.000
    O38      O        0.92450    0.72690    0.27310    1.000
    H39      H        0.14413    0.59077    0.40923    1.000
    C40      C        0.55230    0.07750    0.92250    1.000
    O41      O        0.72690    0.92450    0.07550    1.000
    H42      H        0.59077    0.14413    0.85587    1.000
    C43      C        0.92250    0.44770    0.55230    1.000
    O44      O        0.07550    0.27310    0.72690    1.000
    H45      H        0.85587    0.40923    0.59077    1.000
    C46      C        0.44770    0.92250    0.07750    1.000
    O47      O        0.27310    0.07550    0.92450    1.000
    H48      H        0.40923    0.85587    0.14413    1.000
    C49      C        0.55230    0.44770    0.07750    1.000
    O50      O        0.72690    0.27310    0.92450    1.000
    H51      H        0.59077    0.40923    0.14413    1.000
    C52      C        0.07750    0.92250    0.55230    1.000
    O53      O        0.92450    0.07550    0.72690    1.000
    H54      H        0.14413    0.85587    0.59077    1.000
    C55      C        0.44770    0.55230    0.92250    1.000
    O56      O        0.27310    0.72690    0.07550    1.000
    H57      H        0.40923    0.59077    0.85587    1.000
    C58      C        0.92250    0.07750    0.44770    1.000
    O59      O        0.07550    0.92450    0.27310    1.000
    H60      H        0.85587    0.14413    0.40923    1.000
    C61      C        0.44770    0.07750    0.55230    1.000
    O62      O        0.27310    0.92450    0.72690    1.000
    H63      H        0.40923    0.14413    0.59077    1.000
    C64      C        0.92250    0.55230    0.07750    1.000
    O65      O        0.07550    0.72690    0.92450    1.000
    H66      H        0.85587    0.59077    0.14413    1.000
    C67      C        0.55230    0.92250    0.44770    1.000
    O68      O        0.72690    0.07550    0.27310    1.000
    H69      H        0.59077    0.85587    0.40923    1.000
    C70      C        0.07750    0.44770    0.92250    1.000
    O71      O        0.92450    0.27310    0.07550    1.000
    H72      H        0.14413    0.40923    0.85587    1.000
    Zr73     Zr       0.87630    0.87630    0.12370    1.000
    Zr74     Zr       0.12370    0.12370    0.87630    1.000
    Zr75     Zr       0.12370    0.87630    0.87630    1.000
    Zr76     Zr       0.87630    0.12370    0.12370    1.000
    Zr77     Zr       0.87630    0.12370    0.87630    1.000
    Zr78     Zr       0.12370    0.87630    0.12370    1.000
    C79      C        0.68740    0.00000    0.31260    1.000
    C80      C        0.59340    0.00000    0.40660    1.000
    C81      C        0.00000    0.68740    0.00000    1.000
    C82      C        0.00000    0.59340    0.00000    1.000
    C83      C        0.31260    0.00000    0.68740    1.000
    C84      C        0.40660    0.00000    0.59340    1.000
    C85      C        0.00000    0.31260    0.00000    1.000
    C86      C        0.00000    0.40660    0.00000    1.000
    C87      C        0.31260    0.68740    0.00000    1.000
    C88      C        0.40660    0.59340    0.00000    1.000
    C89      C        0.00000    0.00000    0.68740    1.000
    C90      C        0.00000    0.00000    0.59340    1.000
    C91      C        0.68740    0.31260    0.00000    1.000
    C92      C        0.59340    0.40660    0.00000    1.000
    C93      C        0.00000    0.00000    0.31260    1.000
    C94      C        0.00000    0.00000    0.40660    1.000
    C95      C        0.00000    0.31260    0.68740    1.000
    C96      C        0.00000    0.40660    0.59340    1.000
    C97      C        0.68740    0.00000    0.00000    1.000
    C98      C        0.59340    0.00000    0.00000    1.000
    C99      C        0.00000    0.68740    0.31260    1.000
    C100     C        0.00000    0.59340    0.40660    1.000
    C101     C        0.31260    0.00000    0.00000    1.000
    C102     C        0.40660    0.00000    0.00000    1.000
    O103     O        0.78640    0.07120    0.07120    1.000
    O104     O        0.07120    0.78640    0.07120    1.000
    O105     O        0.07120    0.07120    0.78640    1.000
    O106     O        0.07120    0.07120    0.07120    1.000
    O107     O        0.92880    0.92880    0.21360    1.000
    H108     H        0.90640    0.90640    0.28079    1.000
    O109     O        0.92880    0.92880    0.92880    1.000
    H110     H        0.90640    0.90640    0.90640    1.000
    O111     O        0.21360    0.92880    0.92880    1.000
    H112     H        0.28079    0.90640    0.90640    1.000
    O113     O        0.92880    0.21360    0.92880    1.000
    H114     H        0.90640    0.28079    0.90640    1.000
