# CIF file generated by openbabel 3.1.0, see https://openbabel.org
data_I
_chemical_name_common 'image0'
_cell_length_a 21.8518
_cell_length_b 14.161
_cell_length_c 17.9185
_cell_angle_alpha 90
_cell_angle_beta 108.165
_cell_angle_gamma 90
_space_group_name_H-M_alt 'P 1'
_space_group_name_Hall 'P 1'
loop_
    _symmetry_equiv_pos_as_xyz
    x,y,z
loop_
    _atom_site_label
    _atom_site_type_symbol
    _atom_site_fract_x
    _atom_site_fract_y
    _atom_site_fract_z
    _atom_site_occupancy
    F1       F        0.91719    0.45798    0.72994    1.000
    Cu1      Cu       0.81063    0.38194    0.47626    1.000
    Cu2      Cu       0.75179    0.89546    0.58471    1.000
    F2       F        0.02449    0.45921    0.84971    1.000
    F3       F        0.93462    0.78807    0.70343    1.000
    F4       F        0.04117    0.78880    0.82299    1.000
    F5       F        0.59428    0.43580    0.35870    1.000
    F6       F        0.58148    0.45310    0.09173    1.000
    N1       N        0.31310    0.39170    0.01990    1.000
    N2       N        0.74352    0.39750    0.37800    1.000
    F7       F        0.46817    0.42150    0.31862    1.000
    N3       N        0.14484    0.76590    0.98990    1.000
    C1       C        0.49490    0.42890    0.26070    1.000
    F8       F        0.45596    0.44380    0.05153    1.000
    C2       C        0.00387    0.54170    0.81320    1.000
    C3       C        0.34747    0.40590    0.08150    1.000
    C4       C        0.86121    0.62250    0.64480    1.000
    N4       N        0.78824    0.76840    0.61720    1.000
    N5       N        0.71827    0.54270    0.16330    1.000
    C5       C        0.10036    0.62260    0.90400    1.000
    N6       N        0.17673    0.48180    0.92020    1.000
    C6       C        0.92075    0.62260    0.70980    1.000
    C7       C        0.12433    0.70170    0.95090    1.000
    C8       C        0.95558    0.70520    0.73850    1.000
    C9       C        0.14190    0.54450    0.91380    1.000
    C10      C        0.66458    0.45230    0.24880    1.000
    C11      C        0.03934    0.62390    0.84090    1.000
    C12      C        0.70658    0.42130    0.32100    1.000
    C13      C        0.55470    0.44630    0.15010    1.000
    C14      C        0.56090    0.43620    0.28100    1.000
    C15      C        0.45501    0.43100    0.18300    1.000
    C16      C        0.01158    0.70530    0.80100    1.000
    C17      C        0.48864    0.44080    0.12910    1.000
    C18      C        0.94828    0.54140    0.75100    1.000
    C19      C        0.84479    0.54770    0.59200    1.000
    C20      C        0.82011    0.70200    0.62900    1.000
    N7       N        0.83158    0.48710    0.54650    1.000
    C21      C        0.69391    0.50100    0.20150    1.000
    C22      C        0.38505    0.42200    0.15910    1.000
    C23      C        0.59410    0.44470    0.22740    1.000
    C24      C        0.35000    0.42750    0.21270    1.000
    N8       N        0.31710    0.42960    0.25210    1.000
    F9       F        0.08281    0.95798    0.77006    1.000
    Cu3      Cu       0.18937    0.88194    0.02374    1.000
    Cu4      Cu       0.24821    0.39546    0.91529    1.000
    F10      F        0.97551    0.95921    0.65029    1.000
    F11      F        0.06538    0.28807    0.79657    1.000
    F12      F        0.95883    0.28880    0.67701    1.000
    F13      F        0.40572    0.93580    0.14130    1.000
    F14      F        0.41852    0.95310    0.40827    1.000
    N9       N        0.68690    0.89170    0.48010    1.000
    N10      N        0.25648    0.89750    0.12200    1.000
    F15      F        0.53183    0.92150    0.18138    1.000
    N11      N        0.85516    0.26590    0.51010    1.000
    C25      C        0.50510    0.92890    0.23930    1.000
    F16      F        0.54404    0.94380    0.44847    1.000
    C26      C        0.99613    0.04170    0.68680    1.000
    C27      C        0.65253    0.90590    0.41850    1.000
    C28      C        0.13879    0.12250    0.85520    1.000
    N12      N        0.21176    0.26840    0.88280    1.000
    N13      N        0.28173    0.04270    0.33670    1.000
    C29      C        0.89964    0.12260    0.59600    1.000
    N14      N        0.82327    0.98180    0.57980    1.000
    C30      C        0.07925    0.12260    0.79020    1.000
    C31      C        0.87567    0.20170    0.54910    1.000
    C32      C        0.04442    0.20520    0.76150    1.000
    C33      C        0.85810    0.04450    0.58620    1.000
    C34      C        0.33542    0.95230    0.25120    1.000
    C35      C        0.96066    0.12390    0.65910    1.000
    C36      C        0.29342    0.92130    0.17900    1.000
    C37      C        0.44530    0.94630    0.34990    1.000
    C38      C        0.43910    0.93620    0.21900    1.000
    C39      C        0.54499    0.93100    0.31700    1.000
    C40      C        0.98842    0.20530    0.69900    1.000
    C41      C        0.51136    0.94080    0.37090    1.000
    C42      C        0.05172    0.04140    0.74900    1.000
    C43      C        0.15521    0.04770    0.90800    1.000
    C44      C        0.17989    0.20200    0.87100    1.000
    N15      N        0.16842    0.98710    0.95350    1.000
    C45      C        0.30609    0.00100    0.29850    1.000
    C46      C        0.61495    0.92200    0.34090    1.000
    C47      C        0.40590    0.94470    0.27260    1.000
    C48      C        0.65000    0.92750    0.28730    1.000
    N16      N        0.68290    0.92960    0.24790    1.000
    F17      F        0.08281    0.54202    0.27006    1.000
    Cu5      Cu       0.18937    0.61806    0.52374    1.000
    Cu6      Cu       0.24821    0.10454    0.41529    1.000
    F18      F        0.97551    0.54079    0.15029    1.000
    F19      F        0.06538    0.21193    0.29657    1.000
    F20      F        0.95883    0.21120    0.17701    1.000
    F21      F        0.40572    0.56420    0.64130    1.000
    F22      F        0.41852    0.54690    0.90827    1.000
    N17      N        0.68690    0.60830    0.98010    1.000
    N18      N        0.25648    0.60250    0.62200    1.000
    F23      F        0.53183    0.57850    0.68138    1.000
    N19      N        0.85516    0.23410    0.01010    1.000
    C49      C        0.50510    0.57110    0.73930    1.000
    F24      F        0.54404    0.55620    0.94847    1.000
    C50      C        0.99613    0.45830    0.18680    1.000
    C51      C        0.65253    0.59410    0.91850    1.000
    C52      C        0.13879    0.37750    0.35520    1.000
    N20      N        0.21176    0.23160    0.38280    1.000
    N21      N        0.28173    0.45730    0.83670    1.000
    C53      C        0.89964    0.37740    0.09600    1.000
    N22      N        0.82327    0.51820    0.07980    1.000
    C54      C        0.07925    0.37740    0.29020    1.000
    C55      C        0.87567    0.29830    0.04910    1.000
    C56      C        0.04442    0.29480    0.26150    1.000
    C57      C        0.85810    0.45550    0.08620    1.000
    C58      C        0.33542    0.54770    0.75120    1.000
    C59      C        0.96066    0.37610    0.15910    1.000
    C60      C        0.29342    0.57870    0.67900    1.000
    C61      C        0.44530    0.55370    0.84990    1.000
    C62      C        0.43910    0.56380    0.71900    1.000
    C63      C        0.54499    0.56900    0.81700    1.000
    C64      C        0.98842    0.29470    0.19900    1.000
    C65      C        0.51136    0.55920    0.87090    1.000
    C66      C        0.05172    0.45860    0.24900    1.000
    C67      C        0.15521    0.45230    0.40800    1.000
    C68      C        0.17989    0.29800    0.37100    1.000
    N23      N        0.16842    0.51290    0.45350    1.000
    C69      C        0.30609    0.49900    0.79850    1.000
    C70      C        0.61495    0.57800    0.84090    1.000
    C71      C        0.40590    0.55530    0.77260    1.000
    C72      C        0.65000    0.57250    0.78730    1.000
    N24      N        0.68290    0.57040    0.74790    1.000
    F25      F        0.91719    0.04202    0.22994    1.000
    Cu7      Cu       0.81063    0.11806    0.97626    1.000
    Cu8      Cu       0.75179    0.60454    0.08471    1.000
    F26      F        0.02449    0.04079    0.34971    1.000
    F27      F        0.93462    0.71193    0.20343    1.000
    F28      F        0.04117    0.71120    0.32299    1.000
    F29      F        0.59428    0.06420    0.85870    1.000
    F30      F        0.58148    0.04690    0.59173    1.000
    N25      N        0.31310    0.10830    0.51990    1.000
    N26      N        0.74352    0.10250    0.87800    1.000
    F31      F        0.46817    0.07850    0.81862    1.000
    N27      N        0.14484    0.73410    0.48990    1.000
    C73      C        0.49490    0.07110    0.76070    1.000
    F32      F        0.45596    0.05620    0.55153    1.000
    C74      C        0.00387    0.95830    0.31320    1.000
    C75      C        0.34747    0.09410    0.58150    1.000
    C76      C        0.86121    0.87750    0.14480    1.000
    N28      N        0.78824    0.73160    0.11720    1.000
    N29      N        0.71827    0.95730    0.66330    1.000
    C77      C        0.10036    0.87740    0.40400    1.000
    N30      N        0.17673    0.01820    0.42020    1.000
    C78      C        0.92075    0.87740    0.20980    1.000
    C79      C        0.12433    0.79830    0.45090    1.000
    C80      C        0.95558    0.79480    0.23850    1.000
    C81      C        0.14190    0.95550    0.41380    1.000
    C82      C        0.66458    0.04770    0.74880    1.000
    C83      C        0.03934    0.87610    0.34090    1.000
    C84      C        0.70658    0.07870    0.82100    1.000
    C85      C        0.55470    0.05370    0.65010    1.000
    C86      C        0.56090    0.06380    0.78100    1.000
    C87      C        0.45501    0.06900    0.68300    1.000
    C88      C        0.01158    0.79470    0.30100    1.000
    C89      C        0.48864    0.05920    0.62910    1.000
    C90      C        0.94828    0.95860    0.25100    1.000
    C91      C        0.84479    0.95230    0.09200    1.000
    C92      C        0.82011    0.79800    0.12900    1.000
    N31      N        0.83158    0.01290    0.04650    1.000
    C93      C        0.69391    0.99900    0.70150    1.000
    C94      C        0.38505    0.07800    0.65910    1.000
    C95      C        0.59410    0.05530    0.72740    1.000
    C96      C        0.35000    0.07250    0.71270    1.000
    N32      N        0.31710    0.07040    0.75210    1.000
