# CIF file generated by openbabel 3.1.0, see https://openbabel.org
data_I
_chemical_name_common 'image0'
_cell_length_a 19.869
_cell_length_b 28.259
_cell_length_c 48.027
_cell_angle_alpha 90
_cell_angle_beta 90
_cell_angle_gamma 90
_space_group_name_H-M_alt 'P 1'
_space_group_name_Hall 'P 1'
loop_
    _symmetry_equiv_pos_as_xyz
    x,y,z
loop_
    _atom_site_label
    _atom_site_type_symbol
    _atom_site_fract_x
    _atom_site_fract_y
    _atom_site_fract_z
    _atom_site_occupancy
    C1       C        0.62490    0.95840    0.28792    1.000
    H1       H        0.62600    0.94370    0.30520    1.000
    N1       N        0.62340    0.93670    0.26322    1.000
    C2       C        0.62200    0.96990    0.24345    1.000
    H2       H        0.62080    0.96460    0.22430    1.000
    N2       N        0.62260    0.01220    0.25590    1.000
    N3       N        0.62440    0.00510    0.28340    1.000
    N4       N        0.79440    0.89660    0.20130    1.000
    N5       N        0.80060    0.84950    0.20340    1.000
    C3       C        0.74710    0.83310    0.21750    1.000
    H3       H        0.73860    0.80160    0.22190    1.000
    N6       N        0.70790    0.87020    0.22400    1.000
    C4       C        0.73720    0.90940    0.21400    1.000
    H4       H        0.72070    0.94010    0.21560    1.000
    N7       N        0.79490    0.89720    0.05140    1.000
    N8       N        0.80020    0.84960    0.04980    1.000
    C5       C        0.74670    0.83330    0.03550    1.000
    H5       H        0.73780    0.80170    0.03130    1.000
    N9       N        0.70830    0.87070    0.02820    1.000
    C6       C        0.73810    0.91020    0.03800    1.000
    H6       H        0.72230    0.94100    0.03600    1.000
    N10      N        0.88220    0.95220    0.15030    1.000
    C7       C        0.85050    0.93360    0.12770    1.000
    H7       H        0.81410    0.91290    0.12800    1.000
    N11      N        0.88130    0.95060    0.10440    1.000
    C8       C        0.93220    0.97960    0.11270    1.000
    H8       H        0.96140    0.99600    0.10100    1.000
    N12      N        0.93270    0.98060    0.14100    1.000
    Zn1      Zn       0.86915    0.94025    0.06422    1.000
    Zn2      Zn       0.86849    0.94104    0.18972    1.000
    Zn3      Zn       0.62236    0.87174    0.24758    1.000
    C9       C        0.85740    0.02970    0.02880    1.000
    H9       H        0.81620    0.02140    0.02100    1.000
    N13      N        0.89220    0.00420    0.04670    1.000
    N14      N        0.94750    0.02770    0.05290    1.000
    C10      C        0.94690    0.06780    0.03880    1.000
    H10      H        0.97990    0.09110    0.03920    1.000
    N15      N        0.89120    0.06900    0.02390    1.000
    N16      N        0.89080    0.94380    0.14940    1.000
    C11      C        0.85150    0.94420    0.12670    1.000
    H11      H        0.80470    0.94510    0.12660    1.000
    N17      N        0.89150    0.94300    0.10420    1.000
    C12      C        0.95550    0.94190    0.11300    1.000
    H12      H        0.99350    0.94100    0.10170    1.000
    N18      N        0.95510    0.94240    0.14090    1.000
    C13      C        0.87570    0.02210    0.99520    1.000
    H13      H        0.87620    0.02600    0.97600    1.000
    N19      N        0.87450    0.98020    0.00890    1.000
    N20      N        0.87420    0.98950    0.03660    1.000
    C14      C        0.87530    0.03710    0.04000    1.000
    H14      H        0.87540    0.05310    0.05690    1.000
    N21      N        0.87630    0.05720    0.01440    1.000
    C15      C        0.62490    0.45840    0.78792    1.000
    H15      H        0.62600    0.44370    0.80520    1.000
    N22      N        0.62340    0.43670    0.76322    1.000
    C16      C        0.62200    0.46990    0.74345    1.000
    H16      H        0.62080    0.46460    0.72430    1.000
    N23      N        0.62260    0.51220    0.75590    1.000
    N24      N        0.62440    0.50510    0.78340    1.000
    N25      N        0.79440    0.39660    0.70130    1.000
    N26      N        0.80060    0.34950    0.70340    1.000
    C17      C        0.74710    0.33310    0.71750    1.000
    H17      H        0.73860    0.30160    0.72190    1.000
    N27      N        0.70790    0.37020    0.72400    1.000
    C18      C        0.73720    0.40940    0.71400    1.000
    H18      H        0.72070    0.44010    0.71560    1.000
    N28      N        0.79490    0.39720    0.55140    1.000
    N29      N        0.80020    0.34960    0.54980    1.000
    C19      C        0.74670    0.33330    0.53550    1.000
    H19      H        0.73780    0.30170    0.53130    1.000
    N30      N        0.70830    0.37070    0.52820    1.000
    C20      C        0.73810    0.41020    0.53800    1.000
    H20      H        0.72230    0.44100    0.53600    1.000
    N31      N        0.88220    0.45220    0.65030    1.000
    C21      C        0.85050    0.43360    0.62770    1.000
    H21      H        0.81410    0.41290    0.62800    1.000
    N32      N        0.88130    0.45060    0.60440    1.000
    C22      C        0.93220    0.47960    0.61270    1.000
    H22      H        0.96140    0.49600    0.60100    1.000
    N33      N        0.93270    0.48060    0.64100    1.000
    Zn4      Zn       0.86915    0.44025    0.56422    1.000
    Zn5      Zn       0.86849    0.44104    0.68972    1.000
    Zn6      Zn       0.62236    0.37174    0.74758    1.000
    C23      C        0.85740    0.52970    0.52880    1.000
    H23      H        0.81620    0.52140    0.52100    1.000
    N34      N        0.89220    0.50420    0.54670    1.000
    N35      N        0.94750    0.52770    0.55290    1.000
    C24      C        0.94690    0.56780    0.53880    1.000
    H24      H        0.97990    0.59110    0.53920    1.000
    N36      N        0.89120    0.56900    0.52390    1.000
    N37      N        0.89080    0.44380    0.64940    1.000
    C25      C        0.85150    0.44420    0.62670    1.000
    H25      H        0.80470    0.44510    0.62660    1.000
    N38      N        0.89150    0.44300    0.60420    1.000
    C26      C        0.95550    0.44190    0.61300    1.000
    H26      H        0.99350    0.44100    0.60170    1.000
    N39      N        0.95510    0.44240    0.64090    1.000
    C27      C        0.87570    0.52210    0.49520    1.000
    H27      H        0.87620    0.52600    0.47600    1.000
    N40      N        0.87450    0.48020    0.50890    1.000
    N41      N        0.87420    0.48950    0.53660    1.000
    C28      C        0.87530    0.53710    0.54000    1.000
    H28      H        0.87540    0.55310    0.55690    1.000
    N42      N        0.87630    0.55720    0.51440    1.000
    C29      C        0.12490    0.95840    0.78792    1.000
    H29      H        0.12600    0.94370    0.80520    1.000
    N43      N        0.12340    0.93670    0.76322    1.000
    C30      C        0.12200    0.96990    0.74345    1.000
    H30      H        0.12080    0.96460    0.72430    1.000
    N44      N        0.12260    0.01220    0.75590    1.000
    N45      N        0.12440    0.00510    0.78340    1.000
    N46      N        0.29440    0.89660    0.70130    1.000
    N47      N        0.30060    0.84950    0.70340    1.000
    C31      C        0.24710    0.83310    0.71750    1.000
    H31      H        0.23860    0.80160    0.72190    1.000
    N48      N        0.20790    0.87020    0.72400    1.000
    C32      C        0.23720    0.90940    0.71400    1.000
    H32      H        0.22070    0.94010    0.71560    1.000
    N49      N        0.29490    0.89720    0.55140    1.000
    N50      N        0.30020    0.84960    0.54980    1.000
    C33      C        0.24670    0.83330    0.53550    1.000
    H33      H        0.23780    0.80170    0.53130    1.000
    N51      N        0.20830    0.87070    0.52820    1.000
    C34      C        0.23810    0.91020    0.53800    1.000
    H34      H        0.22230    0.94100    0.53600    1.000
    N52      N        0.38220    0.95220    0.65030    1.000
    C35      C        0.35050    0.93360    0.62770    1.000
    H35      H        0.31410    0.91290    0.62800    1.000
    N53      N        0.38130    0.95060    0.60440    1.000
    C36      C        0.43220    0.97960    0.61270    1.000
    H36      H        0.46140    0.99600    0.60100    1.000
    N54      N        0.43270    0.98060    0.64100    1.000
    Zn7      Zn       0.36915    0.94025    0.56422    1.000
    Zn8      Zn       0.36849    0.94104    0.68972    1.000
    Zn9      Zn       0.12236    0.87174    0.74758    1.000
    C37      C        0.35740    0.02970    0.52880    1.000
    H37      H        0.31620    0.02140    0.52100    1.000
    N55      N        0.39220    0.00420    0.54670    1.000
    N56      N        0.44750    0.02770    0.55290    1.000
    C38      C        0.44690    0.06780    0.53880    1.000
    H38      H        0.47990    0.09110    0.53920    1.000
    N57      N        0.39120    0.06900    0.52390    1.000
    N58      N        0.39080    0.94380    0.64940    1.000
    C39      C        0.35150    0.94420    0.62670    1.000
    H39      H        0.30470    0.94510    0.62660    1.000
    N59      N        0.39150    0.94300    0.60420    1.000
    C40      C        0.45550    0.94190    0.61300    1.000
    H40      H        0.49350    0.94100    0.60170    1.000
    N60      N        0.45510    0.94240    0.64090    1.000
    C41      C        0.37570    0.02210    0.49520    1.000
    H41      H        0.37620    0.02600    0.47600    1.000
    N61      N        0.37450    0.98020    0.50890    1.000
    N62      N        0.37420    0.98950    0.53660    1.000
    C42      C        0.37530    0.03710    0.54000    1.000
    H42      H        0.37540    0.05310    0.55690    1.000
    N63      N        0.37630    0.05720    0.51440    1.000
    C43      C        0.12490    0.45840    0.28792    1.000
    H43      H        0.12600    0.44370    0.30520    1.000
    N64      N        0.12340    0.43670    0.26322    1.000
    C44      C        0.12200    0.46990    0.24345    1.000
    H44      H        0.12080    0.46460    0.22430    1.000
    N65      N        0.12260    0.51220    0.25590    1.000
    N66      N        0.12440    0.50510    0.28340    1.000
    N67      N        0.29440    0.39660    0.20130    1.000
    N68      N        0.30060    0.34950    0.20340    1.000
    C45      C        0.24710    0.33310    0.21750    1.000
    H45      H        0.23860    0.30160    0.22190    1.000
    N69      N        0.20790    0.37020    0.22400    1.000
    C46      C        0.23720    0.40940    0.21400    1.000
    H46      H        0.22070    0.44010    0.21560    1.000
    N70      N        0.29490    0.39720    0.05140    1.000
    N71      N        0.30020    0.34960    0.04980    1.000
    C47      C        0.24670    0.33330    0.03550    1.000
    H47      H        0.23780    0.30170    0.03130    1.000
    N72      N        0.20830    0.37070    0.02820    1.000
    C48      C        0.23810    0.41020    0.03800    1.000
    H48      H        0.22230    0.44100    0.03600    1.000
    N73      N        0.38220    0.45220    0.15030    1.000
    C49      C        0.35050    0.43360    0.12770    1.000
    H49      H        0.31410    0.41290    0.12800    1.000
    N74      N        0.38130    0.45060    0.10440    1.000
    C50      C        0.43220    0.47960    0.11270    1.000
    H50      H        0.46140    0.49600    0.10100    1.000
    N75      N        0.43270    0.48060    0.14100    1.000
    Zn10     Zn       0.36915    0.44025    0.06422    1.000
    Zn11     Zn       0.36849    0.44104    0.18972    1.000
    Zn12     Zn       0.12236    0.37174    0.24758    1.000
    C51      C        0.35740    0.52970    0.02880    1.000
    H51      H        0.31620    0.52140    0.02100    1.000
    N76      N        0.39220    0.50420    0.04670    1.000
    N77      N        0.44750    0.52770    0.05290    1.000
    C52      C        0.44690    0.56780    0.03880    1.000
    H52      H        0.47990    0.59110    0.03920    1.000
    N78      N        0.39120    0.56900    0.02390    1.000
    N79      N        0.39080    0.44380    0.14940    1.000
    C53      C        0.35150    0.44420    0.12670    1.000
    H53      H        0.30470    0.44510    0.12660    1.000
    N80      N        0.39150    0.44300    0.10420    1.000
    C54      C        0.45550    0.44190    0.11300    1.000
    H54      H        0.49350    0.44100    0.10170    1.000
    N81      N        0.45510    0.44240    0.14090    1.000
    C55      C        0.37570    0.52210    0.99520    1.000
    H55      H        0.37620    0.52600    0.97600    1.000
    N82      N        0.37450    0.48020    0.00890    1.000
    N83      N        0.37420    0.48950    0.03660    1.000
    C56      C        0.37530    0.53710    0.04000    1.000
    H56      H        0.37540    0.55310    0.05690    1.000
    N84      N        0.37630    0.55720    0.01440    1.000
    C57      C        0.12510    0.79160    0.28792    1.000
    H57      H        0.12400    0.80630    0.30520    1.000
    N85      N        0.12660    0.81330    0.26322    1.000
    C58      C        0.12800    0.78010    0.24345    1.000
    H58      H        0.12920    0.78540    0.22430    1.000
    N86      N        0.12740    0.73780    0.25590    1.000
    N87      N        0.12560    0.74490    0.28340    1.000
    N88      N        0.95560    0.85340    0.20130    1.000
    N89      N        0.94940    0.90050    0.20340    1.000
    C59      C        0.00290    0.91690    0.21750    1.000
    H59      H        0.01140    0.94840    0.22190    1.000
    N90      N        0.04210    0.87980    0.22400    1.000
    C60      C        0.01280    0.84060    0.21400    1.000
    H60      H        0.02930    0.80990    0.21560    1.000
    N91      N        0.95510    0.85280    0.05140    1.000
    N92      N        0.94980    0.90040    0.04980    1.000
    C61      C        0.00330    0.91670    0.03550    1.000
    H61      H        0.01220    0.94830    0.03130    1.000
    N93      N        0.04170    0.87930    0.02820    1.000
    C62      C        0.01190    0.83980    0.03800    1.000
    H62      H        0.02770    0.80900    0.03600    1.000
    N94      N        0.86780    0.79780    0.15030    1.000
    C63      C        0.89950    0.81640    0.12770    1.000
    H63      H        0.93590    0.83710    0.12800    1.000
    N95      N        0.86870    0.79940    0.10440    1.000
    C64      C        0.81780    0.77040    0.11270    1.000
    H64      H        0.78860    0.75400    0.10100    1.000
    N96      N        0.81730    0.76940    0.14100    1.000
    Zn13     Zn       0.88085    0.80975    0.06422    1.000
    Zn14     Zn       0.88151    0.80896    0.18972    1.000
    Zn15     Zn       0.12764    0.87826    0.24758    1.000
    C65      C        0.89260    0.72030    0.02880    1.000
    H65      H        0.93380    0.72860    0.02100    1.000
    N97      N        0.85780    0.74580    0.04670    1.000
    N98      N        0.80250    0.72230    0.05290    1.000
    C66      C        0.80310    0.68220    0.03880    1.000
    H66      H        0.77010    0.65890    0.03920    1.000
    N99      N        0.85880    0.68100    0.02390    1.000
    N100     N        0.85920    0.80620    0.14940    1.000
    C67      C        0.89850    0.80580    0.12670    1.000
    H67      H        0.94530    0.80490    0.12660    1.000
    N101     N        0.85850    0.80700    0.10420    1.000
    C68      C        0.79450    0.80810    0.11300    1.000
    H68      H        0.75650    0.80900    0.10170    1.000
    N102     N        0.79490    0.80760    0.14090    1.000
    C69      C        0.87430    0.72790    0.99520    1.000
    H69      H        0.87380    0.72400    0.97600    1.000
    N103     N        0.87550    0.76980    0.00890    1.000
    N104     N        0.87580    0.76050    0.03660    1.000
    C70      C        0.87470    0.71290    0.04000    1.000
    H70      H        0.87460    0.69690    0.05690    1.000
    N105     N        0.87370    0.69280    0.01440    1.000
    C71      C        0.12510    0.29160    0.78792    1.000
    H71      H        0.12400    0.30630    0.80520    1.000
    N106     N        0.12660    0.31330    0.76322    1.000
    C72      C        0.12800    0.28010    0.74345    1.000
    H72      H        0.12920    0.28540    0.72430    1.000
    N107     N        0.12740    0.23780    0.75590    1.000
    N108     N        0.12560    0.24490    0.78340    1.000
    N109     N        0.95560    0.35340    0.70130    1.000
    N110     N        0.94940    0.40050    0.70340    1.000
    C73      C        0.00290    0.41690    0.71750    1.000
    H73      H        0.01140    0.44840    0.72190    1.000
    N111     N        0.04210    0.37980    0.72400    1.000
    C74      C        0.01280    0.34060    0.71400    1.000
    H74      H        0.02930    0.30990    0.71560    1.000
    N112     N        0.95510    0.35280    0.55140    1.000
    N113     N        0.94980    0.40040    0.54980    1.000
    C75      C        0.00330    0.41670    0.53550    1.000
    H75      H        0.01220    0.44830    0.53130    1.000
    N114     N        0.04170    0.37930    0.52820    1.000
    C76      C        0.01190    0.33980    0.53800    1.000
    H76      H        0.02770    0.30900    0.53600    1.000
    N115     N        0.86780    0.29780    0.65030    1.000
    C77      C        0.89950    0.31640    0.62770    1.000
    H77      H        0.93590    0.33710    0.62800    1.000
    N116     N        0.86870    0.29940    0.60440    1.000
    C78      C        0.81780    0.27040    0.61270    1.000
    H78      H        0.78860    0.25400    0.60100    1.000
    N117     N        0.81730    0.26940    0.64100    1.000
    Zn16     Zn       0.88085    0.30975    0.56422    1.000
    Zn17     Zn       0.88151    0.30896    0.68972    1.000
    Zn18     Zn       0.12764    0.37826    0.74758    1.000
    C79      C        0.89260    0.22030    0.52880    1.000
    H79      H        0.93380    0.22860    0.52100    1.000
    N118     N        0.85780    0.24580    0.54670    1.000
    N119     N        0.80250    0.22230    0.55290    1.000
    C80      C        0.80310    0.18220    0.53880    1.000
    H80      H        0.77010    0.15890    0.53920    1.000
    N120     N        0.85880    0.18100    0.52390    1.000
    N121     N        0.85920    0.30620    0.64940    1.000
    C81      C        0.89850    0.30580    0.62670    1.000
    H81      H        0.94530    0.30490    0.62660    1.000
    N122     N        0.85850    0.30700    0.60420    1.000
    C82      C        0.79450    0.30810    0.61300    1.000
    H82      H        0.75650    0.30900    0.60170    1.000
    N123     N        0.79490    0.30760    0.64090    1.000
    C83      C        0.87430    0.22790    0.49520    1.000
    H83      H        0.87380    0.22400    0.47600    1.000
    N124     N        0.87550    0.26980    0.50890    1.000
    N125     N        0.87580    0.26050    0.53660    1.000
    C84      C        0.87470    0.21290    0.54000    1.000
    H84      H        0.87460    0.19690    0.55690    1.000
    N126     N        0.87370    0.19280    0.51440    1.000
    C85      C        0.62510    0.79160    0.78792    1.000
    H85      H        0.62400    0.80630    0.80520    1.000
    N127     N        0.62660    0.81330    0.76322    1.000
    C86      C        0.62800    0.78010    0.74345    1.000
    H86      H        0.62920    0.78540    0.72430    1.000
    N128     N        0.62740    0.73780    0.75590    1.000
    N129     N        0.62560    0.74490    0.78340    1.000
    N130     N        0.45560    0.85340    0.70130    1.000
    N131     N        0.44940    0.90050    0.70340    1.000
    C87      C        0.50290    0.91690    0.71750    1.000
    H87      H        0.51140    0.94840    0.72190    1.000
    N132     N        0.54210    0.87980    0.72400    1.000
    C88      C        0.51280    0.84060    0.71400    1.000
    H88      H        0.52930    0.80990    0.71560    1.000
    N133     N        0.45510    0.85280    0.55140    1.000
    N134     N        0.44980    0.90040    0.54980    1.000
    C89      C        0.50330    0.91670    0.53550    1.000
    H89      H        0.51220    0.94830    0.53130    1.000
    N135     N        0.54170    0.87930    0.52820    1.000
    C90      C        0.51190    0.83980    0.53800    1.000
    H90      H        0.52770    0.80900    0.53600    1.000
    N136     N        0.36780    0.79780    0.65030    1.000
    C91      C        0.39950    0.81640    0.62770    1.000
    H91      H        0.43590    0.83710    0.62800    1.000
    N137     N        0.36870    0.79940    0.60440    1.000
    C92      C        0.31780    0.77040    0.61270    1.000
    H92      H        0.28860    0.75400    0.60100    1.000
    N138     N        0.31730    0.76940    0.64100    1.000
    Zn19     Zn       0.38085    0.80975    0.56422    1.000
    Zn20     Zn       0.38151    0.80896    0.68972    1.000
    Zn21     Zn       0.62764    0.87826    0.74758    1.000
    C93      C        0.39260    0.72030    0.52880    1.000
    H93      H        0.43380    0.72860    0.52100    1.000
    N139     N        0.35780    0.74580    0.54670    1.000
    N140     N        0.30250    0.72230    0.55290    1.000
    C94      C        0.30310    0.68220    0.53880    1.000
    H94      H        0.27010    0.65890    0.53920    1.000
    N141     N        0.35880    0.68100    0.52390    1.000
    N142     N        0.35920    0.80620    0.64940    1.000
    C95      C        0.39850    0.80580    0.62670    1.000
    H95      H        0.44530    0.80490    0.62660    1.000
    N143     N        0.35850    0.80700    0.60420    1.000
    C96      C        0.29450    0.80810    0.61300    1.000
    H96      H        0.25650    0.80900    0.60170    1.000
    N144     N        0.29490    0.80760    0.64090    1.000
    C97      C        0.37430    0.72790    0.49520    1.000
    H97      H        0.37380    0.72400    0.47600    1.000
    N145     N        0.37550    0.76980    0.50890    1.000
    N146     N        0.37580    0.76050    0.53660    1.000
    C98      C        0.37470    0.71290    0.54000    1.000
    H98      H        0.37460    0.69690    0.55690    1.000
    N147     N        0.37370    0.69280    0.51440    1.000
    C99      C        0.62510    0.29160    0.28792    1.000
    H99      H        0.62400    0.30630    0.30520    1.000
    N148     N        0.62660    0.31330    0.26322    1.000
    C100     C        0.62800    0.28010    0.24345    1.000
    H100     H        0.62920    0.28540    0.22430    1.000
    N149     N        0.62740    0.23780    0.25590    1.000
    N150     N        0.62560    0.24490    0.28340    1.000
    N151     N        0.45560    0.35340    0.20130    1.000
    N152     N        0.44940    0.40050    0.20340    1.000
    C101     C        0.50290    0.41690    0.21750    1.000
    H101     H        0.51140    0.44840    0.22190    1.000
    N153     N        0.54210    0.37980    0.22400    1.000
    C102     C        0.51280    0.34060    0.21400    1.000
    H102     H        0.52930    0.30990    0.21560    1.000
    N154     N        0.45510    0.35280    0.05140    1.000
    N155     N        0.44980    0.40040    0.04980    1.000
    C103     C        0.50330    0.41670    0.03550    1.000
    H103     H        0.51220    0.44830    0.03130    1.000
    N156     N        0.54170    0.37930    0.02820    1.000
    C104     C        0.51190    0.33980    0.03800    1.000
    H104     H        0.52770    0.30900    0.03600    1.000
    N157     N        0.36780    0.29780    0.15030    1.000
    C105     C        0.39950    0.31640    0.12770    1.000
    H105     H        0.43590    0.33710    0.12800    1.000
    N158     N        0.36870    0.29940    0.10440    1.000
    C106     C        0.31780    0.27040    0.11270    1.000
    H106     H        0.28860    0.25400    0.10100    1.000
    N159     N        0.31730    0.26940    0.14100    1.000
    Zn22     Zn       0.38085    0.30975    0.06422    1.000
    Zn23     Zn       0.38151    0.30896    0.18972    1.000
    Zn24     Zn       0.62764    0.37826    0.24758    1.000
    C107     C        0.39260    0.22030    0.02880    1.000
    H107     H        0.43380    0.22860    0.02100    1.000
    N160     N        0.35780    0.24580    0.04670    1.000
    N161     N        0.30250    0.22230    0.05290    1.000
    C108     C        0.30310    0.18220    0.03880    1.000
    H108     H        0.27010    0.15890    0.03920    1.000
    N162     N        0.35880    0.18100    0.02390    1.000
    N163     N        0.35920    0.30620    0.14940    1.000
    C109     C        0.39850    0.30580    0.12670    1.000
    H109     H        0.44530    0.30490    0.12660    1.000
    N164     N        0.35850    0.30700    0.10420    1.000
    C110     C        0.29450    0.30810    0.11300    1.000
    H110     H        0.25650    0.30900    0.10170    1.000
    N165     N        0.29490    0.30760    0.14090    1.000
    C111     C        0.37430    0.22790    0.99520    1.000
    H111     H        0.37380    0.22400    0.97600    1.000
    N166     N        0.37550    0.26980    0.00890    1.000
    N167     N        0.37580    0.26050    0.03660    1.000
    C112     C        0.37470    0.21290    0.04000    1.000
    H112     H        0.37460    0.19690    0.05690    1.000
    N168     N        0.37370    0.19280    0.01440    1.000
    C113     C        0.12510    0.95840    0.46208    1.000
    H113     H        0.12400    0.94370    0.44480    1.000
    N169     N        0.12660    0.93670    0.48678    1.000
    C114     C        0.12800    0.96990    0.50655    1.000
    H114     H        0.12920    0.96460    0.52570    1.000
    N170     N        0.12740    0.01220    0.49410    1.000
    N171     N        0.12560    0.00510    0.46660    1.000
    N172     N        0.95560    0.89660    0.54870    1.000
    N173     N        0.94940    0.84950    0.54660    1.000
    C115     C        0.00290    0.83310    0.53250    1.000
    H115     H        0.01140    0.80160    0.52810    1.000
    N174     N        0.04210    0.87020    0.52600    1.000
    C116     C        0.01280    0.90940    0.53600    1.000
    H116     H        0.02930    0.94010    0.53440    1.000
    N175     N        0.95510    0.89720    0.69860    1.000
    N176     N        0.94980    0.84960    0.70020    1.000
    C117     C        0.00330    0.83330    0.71450    1.000
    H117     H        0.01220    0.80170    0.71870    1.000
    N177     N        0.04170    0.87070    0.72180    1.000
    C118     C        0.01190    0.91020    0.71200    1.000
    H118     H        0.02770    0.94100    0.71400    1.000
    N178     N        0.86780    0.95220    0.59970    1.000
    C119     C        0.89950    0.93360    0.62230    1.000
    H119     H        0.93590    0.91290    0.62200    1.000
    N179     N        0.86870    0.95060    0.64560    1.000
    C120     C        0.81780    0.97960    0.63730    1.000
    H120     H        0.78860    0.99600    0.64900    1.000
    N180     N        0.81730    0.98060    0.60900    1.000
    Zn25     Zn       0.88085    0.94025    0.68578    1.000
    Zn26     Zn       0.88151    0.94104    0.56028    1.000
    Zn27     Zn       0.12764    0.87174    0.50242    1.000
    C121     C        0.89260    0.02970    0.72120    1.000
    H121     H        0.93380    0.02140    0.72900    1.000
    N181     N        0.85780    0.00420    0.70330    1.000
    N182     N        0.80250    0.02770    0.69710    1.000
    C122     C        0.80310    0.06780    0.71120    1.000
    H122     H        0.77010    0.09110    0.71080    1.000
    N183     N        0.85880    0.06900    0.72610    1.000
    N184     N        0.85920    0.94380    0.60060    1.000
    C123     C        0.89850    0.94420    0.62330    1.000
    H123     H        0.94530    0.94510    0.62340    1.000
    N185     N        0.85850    0.94300    0.64580    1.000
    C124     C        0.79450    0.94190    0.63700    1.000
    H124     H        0.75650    0.94100    0.64830    1.000
    N186     N        0.79490    0.94240    0.60910    1.000
    C125     C        0.87430    0.02210    0.75480    1.000
    H125     H        0.87380    0.02600    0.77400    1.000
    N187     N        0.87550    0.98020    0.74110    1.000
    N188     N        0.87580    0.98950    0.71340    1.000
    C126     C        0.87470    0.03710    0.71000    1.000
    H126     H        0.87460    0.05310    0.69310    1.000
    N189     N        0.87370    0.05720    0.73560    1.000
    C127     C        0.12510    0.45840    0.96208    1.000
    H127     H        0.12400    0.44370    0.94480    1.000
    N190     N        0.12660    0.43670    0.98678    1.000
    C128     C        0.12800    0.46990    0.00655    1.000
    H128     H        0.12920    0.46460    0.02570    1.000
    N191     N        0.12740    0.51220    0.99410    1.000
    N192     N        0.12560    0.50510    0.96660    1.000
    N193     N        0.95560    0.39660    0.04870    1.000
    N194     N        0.94940    0.34950    0.04660    1.000
    C129     C        0.00290    0.33310    0.03250    1.000
    H129     H        0.01140    0.30160    0.02810    1.000
    N195     N        0.04210    0.37020    0.02600    1.000
    C130     C        0.01280    0.40940    0.03600    1.000
    H130     H        0.02930    0.44010    0.03440    1.000
    N196     N        0.95510    0.39720    0.19860    1.000
    N197     N        0.94980    0.34960    0.20020    1.000
    C131     C        0.00330    0.33330    0.21450    1.000
    H131     H        0.01220    0.30170    0.21870    1.000
    N198     N        0.04170    0.37070    0.22180    1.000
    C132     C        0.01190    0.41020    0.21200    1.000
    H132     H        0.02770    0.44100    0.21400    1.000
    N199     N        0.86780    0.45220    0.09970    1.000
    C133     C        0.89950    0.43360    0.12230    1.000
    H133     H        0.93590    0.41290    0.12200    1.000
    N200     N        0.86870    0.45060    0.14560    1.000
    C134     C        0.81780    0.47960    0.13730    1.000
    H134     H        0.78860    0.49600    0.14900    1.000
    N201     N        0.81730    0.48060    0.10900    1.000
    Zn28     Zn       0.88085    0.44025    0.18578    1.000
    Zn29     Zn       0.88151    0.44104    0.06028    1.000
    Zn30     Zn       0.12764    0.37174    0.00242    1.000
    C135     C        0.89260    0.52970    0.22120    1.000
    H135     H        0.93380    0.52140    0.22900    1.000
    N202     N        0.85780    0.50420    0.20330    1.000
    N203     N        0.80250    0.52770    0.19710    1.000
    C136     C        0.80310    0.56780    0.21120    1.000
    H136     H        0.77010    0.59110    0.21080    1.000
    N204     N        0.85880    0.56900    0.22610    1.000
    N205     N        0.85920    0.44380    0.10060    1.000
    C137     C        0.89850    0.44420    0.12330    1.000
    H137     H        0.94530    0.44510    0.12340    1.000
    N206     N        0.85850    0.44300    0.14580    1.000
    C138     C        0.79450    0.44190    0.13700    1.000
    H138     H        0.75650    0.44100    0.14830    1.000
    N207     N        0.79490    0.44240    0.10910    1.000
    C139     C        0.87430    0.52210    0.25480    1.000
    H139     H        0.87380    0.52600    0.27400    1.000
    N208     N        0.87550    0.48020    0.24110    1.000
    N209     N        0.87580    0.48950    0.21340    1.000
    C140     C        0.87470    0.53710    0.21000    1.000
    H140     H        0.87460    0.55310    0.19310    1.000
    N210     N        0.87370    0.55720    0.23560    1.000
    C141     C        0.62510    0.95840    0.96208    1.000
    H141     H        0.62400    0.94370    0.94480    1.000
    N211     N        0.62660    0.93670    0.98678    1.000
    C142     C        0.62800    0.96990    0.00655    1.000
    H142     H        0.62920    0.96460    0.02570    1.000
    N212     N        0.62740    0.01220    0.99410    1.000
    N213     N        0.62560    0.00510    0.96660    1.000
    N214     N        0.45560    0.89660    0.04870    1.000
    N215     N        0.44940    0.84950    0.04660    1.000
    C143     C        0.50290    0.83310    0.03250    1.000
    H143     H        0.51140    0.80160    0.02810    1.000
    N216     N        0.54210    0.87020    0.02600    1.000
    C144     C        0.51280    0.90940    0.03600    1.000
    H144     H        0.52930    0.94010    0.03440    1.000
    N217     N        0.45510    0.89720    0.19860    1.000
    N218     N        0.44980    0.84960    0.20020    1.000
    C145     C        0.50330    0.83330    0.21450    1.000
    H145     H        0.51220    0.80170    0.21870    1.000
    N219     N        0.54170    0.87070    0.22180    1.000
    C146     C        0.51190    0.91020    0.21200    1.000
    H146     H        0.52770    0.94100    0.21400    1.000
    N220     N        0.36780    0.95220    0.09970    1.000
    C147     C        0.39950    0.93360    0.12230    1.000
    H147     H        0.43590    0.91290    0.12200    1.000
    N221     N        0.36870    0.95060    0.14560    1.000
    C148     C        0.31780    0.97960    0.13730    1.000
    H148     H        0.28860    0.99600    0.14900    1.000
    N222     N        0.31730    0.98060    0.10900    1.000
    Zn31     Zn       0.38085    0.94025    0.18578    1.000
    Zn32     Zn       0.38151    0.94104    0.06028    1.000
    Zn33     Zn       0.62764    0.87174    0.00242    1.000
    C149     C        0.39260    0.02970    0.22120    1.000
    H149     H        0.43380    0.02140    0.22900    1.000
    N223     N        0.35780    0.00420    0.20330    1.000
    N224     N        0.30250    0.02770    0.19710    1.000
    C150     C        0.30310    0.06780    0.21120    1.000
    H150     H        0.27010    0.09110    0.21080    1.000
    N225     N        0.35880    0.06900    0.22610    1.000
    N226     N        0.35920    0.94380    0.10060    1.000
    C151     C        0.39850    0.94420    0.12330    1.000
    H151     H        0.44530    0.94510    0.12340    1.000
    N227     N        0.35850    0.94300    0.14580    1.000
    C152     C        0.29450    0.94190    0.13700    1.000
    H152     H        0.25650    0.94100    0.14830    1.000
    N228     N        0.29490    0.94240    0.10910    1.000
    C153     C        0.37430    0.02210    0.25480    1.000
    H153     H        0.37380    0.02600    0.27400    1.000
    N229     N        0.37550    0.98020    0.24110    1.000
    N230     N        0.37580    0.98950    0.21340    1.000
    C154     C        0.37470    0.03710    0.21000    1.000
    H154     H        0.37460    0.05310    0.19310    1.000
    N231     N        0.37370    0.05720    0.23560    1.000
    C155     C        0.62510    0.45840    0.46208    1.000
    H155     H        0.62400    0.44370    0.44480    1.000
    N232     N        0.62660    0.43670    0.48678    1.000
    C156     C        0.62800    0.46990    0.50655    1.000
    H156     H        0.62920    0.46460    0.52570    1.000
    N233     N        0.62740    0.51220    0.49410    1.000
    N234     N        0.62560    0.50510    0.46660    1.000
    N235     N        0.45560    0.39660    0.54870    1.000
    N236     N        0.44940    0.34950    0.54660    1.000
    C157     C        0.50290    0.33310    0.53250    1.000
    H157     H        0.51140    0.30160    0.52810    1.000
    N237     N        0.54210    0.37020    0.52600    1.000
    C158     C        0.51280    0.40940    0.53600    1.000
    H158     H        0.52930    0.44010    0.53440    1.000
    N238     N        0.45510    0.39720    0.69860    1.000
    N239     N        0.44980    0.34960    0.70020    1.000
    C159     C        0.50330    0.33330    0.71450    1.000
    H159     H        0.51220    0.30170    0.71870    1.000
    N240     N        0.54170    0.37070    0.72180    1.000
    C160     C        0.51190    0.41020    0.71200    1.000
    H160     H        0.52770    0.44100    0.71400    1.000
    N241     N        0.36780    0.45220    0.59970    1.000
    C161     C        0.39950    0.43360    0.62230    1.000
    H161     H        0.43590    0.41290    0.62200    1.000
    N242     N        0.36870    0.45060    0.64560    1.000
    C162     C        0.31780    0.47960    0.63730    1.000
    H162     H        0.28860    0.49600    0.64900    1.000
    N243     N        0.31730    0.48060    0.60900    1.000
    Zn34     Zn       0.38085    0.44025    0.68578    1.000
    Zn35     Zn       0.38151    0.44104    0.56028    1.000
    Zn36     Zn       0.62764    0.37174    0.50242    1.000
    C163     C        0.39260    0.52970    0.72120    1.000
    H163     H        0.43380    0.52140    0.72900    1.000
    N244     N        0.35780    0.50420    0.70330    1.000
    N245     N        0.30250    0.52770    0.69710    1.000
    C164     C        0.30310    0.56780    0.71120    1.000
    H164     H        0.27010    0.59110    0.71080    1.000
    N246     N        0.35880    0.56900    0.72610    1.000
    N247     N        0.35920    0.44380    0.60060    1.000
    C165     C        0.39850    0.44420    0.62330    1.000
    H165     H        0.44530    0.44510    0.62340    1.000
    N248     N        0.35850    0.44300    0.64580    1.000
    C166     C        0.29450    0.44190    0.63700    1.000
    H166     H        0.25650    0.44100    0.64830    1.000
    N249     N        0.29490    0.44240    0.60910    1.000
    C167     C        0.37430    0.52210    0.75480    1.000
    H167     H        0.37380    0.52600    0.77400    1.000
    N250     N        0.37550    0.48020    0.74110    1.000
    N251     N        0.37580    0.48950    0.71340    1.000
    C168     C        0.37470    0.53710    0.71000    1.000
    H168     H        0.37460    0.55310    0.69310    1.000
    N252     N        0.37370    0.55720    0.73560    1.000
    C169     C        0.62490    0.79160    0.46208    1.000
    H169     H        0.62600    0.80630    0.44480    1.000
    N253     N        0.62340    0.81330    0.48678    1.000
    C170     C        0.62200    0.78010    0.50655    1.000
    H170     H        0.62080    0.78540    0.52570    1.000
    N254     N        0.62260    0.73780    0.49410    1.000
    N255     N        0.62440    0.74490    0.46660    1.000
    N256     N        0.79440    0.85340    0.54870    1.000
    N257     N        0.80060    0.90050    0.54660    1.000
    C171     C        0.74710    0.91690    0.53250    1.000
    H171     H        0.73860    0.94840    0.52810    1.000
    N258     N        0.70790    0.87980    0.52600    1.000
    C172     C        0.73720    0.84060    0.53600    1.000
    H172     H        0.72070    0.80990    0.53440    1.000
    N259     N        0.79490    0.85280    0.69860    1.000
    N260     N        0.80020    0.90040    0.70020    1.000
    C173     C        0.74670    0.91670    0.71450    1.000
    H173     H        0.73780    0.94830    0.71870    1.000
    N261     N        0.70830    0.87930    0.72180    1.000
    C174     C        0.73810    0.83980    0.71200    1.000
    H174     H        0.72230    0.80900    0.71400    1.000
    N262     N        0.88220    0.79780    0.59970    1.000
    C175     C        0.85050    0.81640    0.62230    1.000
    H175     H        0.81410    0.83710    0.62200    1.000
    N263     N        0.88130    0.79940    0.64560    1.000
    C176     C        0.93220    0.77040    0.63730    1.000
    H176     H        0.96140    0.75400    0.64900    1.000
    N264     N        0.93270    0.76940    0.60900    1.000
    Zn37     Zn       0.86915    0.80975    0.68578    1.000
    Zn38     Zn       0.86849    0.80896    0.56028    1.000
    Zn39     Zn       0.62236    0.87826    0.50242    1.000
    C177     C        0.85740    0.72030    0.72120    1.000
    H177     H        0.81620    0.72860    0.72900    1.000
    N265     N        0.89220    0.74580    0.70330    1.000
    N266     N        0.94750    0.72230    0.69710    1.000
    C178     C        0.94690    0.68220    0.71120    1.000
    H178     H        0.97990    0.65890    0.71080    1.000
    N267     N        0.89120    0.68100    0.72610    1.000
    N268     N        0.89080    0.80620    0.60060    1.000
    C179     C        0.85150    0.80580    0.62330    1.000
    H179     H        0.80470    0.80490    0.62340    1.000
    N269     N        0.89150    0.80700    0.64580    1.000
    C180     C        0.95550    0.80810    0.63700    1.000
    H180     H        0.99350    0.80900    0.64830    1.000
    N270     N        0.95510    0.80760    0.60910    1.000
    C181     C        0.87570    0.72790    0.75480    1.000
    H181     H        0.87620    0.72400    0.77400    1.000
    N271     N        0.87450    0.76980    0.74110    1.000
    N272     N        0.87420    0.76050    0.71340    1.000
    C182     C        0.87530    0.71290    0.71000    1.000
    H182     H        0.87540    0.69690    0.69310    1.000
    N273     N        0.87630    0.69280    0.73560    1.000
    C183     C        0.62490    0.29160    0.96208    1.000
    H183     H        0.62600    0.30630    0.94480    1.000
    N274     N        0.62340    0.31330    0.98678    1.000
    C184     C        0.62200    0.28010    0.00655    1.000
    H184     H        0.62080    0.28540    0.02570    1.000
    N275     N        0.62260    0.23780    0.99410    1.000
    N276     N        0.62440    0.24490    0.96660    1.000
    N277     N        0.79440    0.35340    0.04870    1.000
    N278     N        0.80060    0.40050    0.04660    1.000
    C185     C        0.74710    0.41690    0.03250    1.000
    H185     H        0.73860    0.44840    0.02810    1.000
    N279     N        0.70790    0.37980    0.02600    1.000
    C186     C        0.73720    0.34060    0.03600    1.000
    H186     H        0.72070    0.30990    0.03440    1.000
    N280     N        0.79490    0.35280    0.19860    1.000
    N281     N        0.80020    0.40040    0.20020    1.000
    C187     C        0.74670    0.41670    0.21450    1.000
    H187     H        0.73780    0.44830    0.21870    1.000
    N282     N        0.70830    0.37930    0.22180    1.000
    C188     C        0.73810    0.33980    0.21200    1.000
    H188     H        0.72230    0.30900    0.21400    1.000
    N283     N        0.88220    0.29780    0.09970    1.000
    C189     C        0.85050    0.31640    0.12230    1.000
    H189     H        0.81410    0.33710    0.12200    1.000
    N284     N        0.88130    0.29940    0.14560    1.000
    C190     C        0.93220    0.27040    0.13730    1.000
    H190     H        0.96140    0.25400    0.14900    1.000
    N285     N        0.93270    0.26940    0.10900    1.000
    Zn40     Zn       0.86915    0.30975    0.18578    1.000
    Zn41     Zn       0.86849    0.30896    0.06028    1.000
    Zn42     Zn       0.62236    0.37826    0.00242    1.000
    C191     C        0.85740    0.22030    0.22120    1.000
    H191     H        0.81620    0.22860    0.22900    1.000
    N286     N        0.89220    0.24580    0.20330    1.000
    N287     N        0.94750    0.22230    0.19710    1.000
    C192     C        0.94690    0.18220    0.21120    1.000
    H192     H        0.97990    0.15890    0.21080    1.000
    N288     N        0.89120    0.18100    0.22610    1.000
    N289     N        0.89080    0.30620    0.10060    1.000
    C193     C        0.85150    0.30580    0.12330    1.000
    H193     H        0.80470    0.30490    0.12340    1.000
    N290     N        0.89150    0.30700    0.14580    1.000
    C194     C        0.95550    0.30810    0.13700    1.000
    H194     H        0.99350    0.30900    0.14830    1.000
    N291     N        0.95510    0.30760    0.10910    1.000
    C195     C        0.87570    0.22790    0.25480    1.000
    H195     H        0.87620    0.22400    0.27400    1.000
    N292     N        0.87450    0.26980    0.24110    1.000
    N293     N        0.87420    0.26050    0.21340    1.000
    C196     C        0.87530    0.21290    0.21000    1.000
    H196     H        0.87540    0.19690    0.19310    1.000
    N294     N        0.87630    0.19280    0.23560    1.000
    C197     C        0.12490    0.79160    0.96208    1.000
    H197     H        0.12600    0.80630    0.94480    1.000
    N295     N        0.12340    0.81330    0.98678    1.000
    C198     C        0.12200    0.78010    0.00655    1.000
    H198     H        0.12080    0.78540    0.02570    1.000
    N296     N        0.12260    0.73780    0.99410    1.000
    N297     N        0.12440    0.74490    0.96660    1.000
    N298     N        0.29440    0.85340    0.04870    1.000
    N299     N        0.30060    0.90050    0.04660    1.000
    C199     C        0.24710    0.91690    0.03250    1.000
    H199     H        0.23860    0.94840    0.02810    1.000
    N300     N        0.20790    0.87980    0.02600    1.000
    C200     C        0.23720    0.84060    0.03600    1.000
    H200     H        0.22070    0.80990    0.03440    1.000
    N301     N        0.29490    0.85280    0.19860    1.000
    N302     N        0.30020    0.90040    0.20020    1.000
    C201     C        0.24670    0.91670    0.21450    1.000
    H201     H        0.23780    0.94830    0.21870    1.000
    N303     N        0.20830    0.87930    0.22180    1.000
    C202     C        0.23810    0.83980    0.21200    1.000
    H202     H        0.22230    0.80900    0.21400    1.000
    N304     N        0.38220    0.79780    0.09970    1.000
    C203     C        0.35050    0.81640    0.12230    1.000
    H203     H        0.31410    0.83710    0.12200    1.000
    N305     N        0.38130    0.79940    0.14560    1.000
    C204     C        0.43220    0.77040    0.13730    1.000
    H204     H        0.46140    0.75400    0.14900    1.000
    N306     N        0.43270    0.76940    0.10900    1.000
    Zn43     Zn       0.36915    0.80975    0.18578    1.000
    Zn44     Zn       0.36849    0.80896    0.06028    1.000
    Zn45     Zn       0.12236    0.87826    0.00242    1.000
    C205     C        0.35740    0.72030    0.22120    1.000
    H205     H        0.31620    0.72860    0.22900    1.000
    N307     N        0.39220    0.74580    0.20330    1.000
    N308     N        0.44750    0.72230    0.19710    1.000
    C206     C        0.44690    0.68220    0.21120    1.000
    H206     H        0.47990    0.65890    0.21080    1.000
    N309     N        0.39120    0.68100    0.22610    1.000
    N310     N        0.39080    0.80620    0.10060    1.000
    C207     C        0.35150    0.80580    0.12330    1.000
    H207     H        0.30470    0.80490    0.12340    1.000
    N311     N        0.39150    0.80700    0.14580    1.000
    C208     C        0.45550    0.80810    0.13700    1.000
    H208     H        0.49350    0.80900    0.14830    1.000
    N312     N        0.45510    0.80760    0.10910    1.000
    C209     C        0.37570    0.72790    0.25480    1.000
    H209     H        0.37620    0.72400    0.27400    1.000
    N313     N        0.37450    0.76980    0.24110    1.000
    N314     N        0.37420    0.76050    0.21340    1.000
    C210     C        0.37530    0.71290    0.21000    1.000
    H210     H        0.37540    0.69690    0.19310    1.000
    N315     N        0.37630    0.69280    0.23560    1.000
    C211     C        0.12490    0.29160    0.46208    1.000
    H211     H        0.12600    0.30630    0.44480    1.000
    N316     N        0.12340    0.31330    0.48678    1.000
    C212     C        0.12200    0.28010    0.50655    1.000
    H212     H        0.12080    0.28540    0.52570    1.000
    N317     N        0.12260    0.23780    0.49410    1.000
    N318     N        0.12440    0.24490    0.46660    1.000
    N319     N        0.29440    0.35340    0.54870    1.000
    N320     N        0.30060    0.40050    0.54660    1.000
    C213     C        0.24710    0.41690    0.53250    1.000
    H213     H        0.23860    0.44840    0.52810    1.000
    N321     N        0.20790    0.37980    0.52600    1.000
    C214     C        0.23720    0.34060    0.53600    1.000
    H214     H        0.22070    0.30990    0.53440    1.000
    N322     N        0.29490    0.35280    0.69860    1.000
    N323     N        0.30020    0.40040    0.70020    1.000
    C215     C        0.24670    0.41670    0.71450    1.000
    H215     H        0.23780    0.44830    0.71870    1.000
    N324     N        0.20830    0.37930    0.72180    1.000
    C216     C        0.23810    0.33980    0.71200    1.000
    H216     H        0.22230    0.30900    0.71400    1.000
    N325     N        0.38220    0.29780    0.59970    1.000
    C217     C        0.35050    0.31640    0.62230    1.000
    H217     H        0.31410    0.33710    0.62200    1.000
    N326     N        0.38130    0.29940    0.64560    1.000
    C218     C        0.43220    0.27040    0.63730    1.000
    H218     H        0.46140    0.25400    0.64900    1.000
    N327     N        0.43270    0.26940    0.60900    1.000
    Zn46     Zn       0.36915    0.30975    0.68578    1.000
    Zn47     Zn       0.36849    0.30896    0.56028    1.000
    Zn48     Zn       0.12236    0.37826    0.50242    1.000
    C219     C        0.35740    0.22030    0.72120    1.000
    H219     H        0.31620    0.22860    0.72900    1.000
    N328     N        0.39220    0.24580    0.70330    1.000
    N329     N        0.44750    0.22230    0.69710    1.000
    C220     C        0.44690    0.18220    0.71120    1.000
    H220     H        0.47990    0.15890    0.71080    1.000
    N330     N        0.39120    0.18100    0.72610    1.000
    N331     N        0.39080    0.30620    0.60060    1.000
    C221     C        0.35150    0.30580    0.62330    1.000
    H221     H        0.30470    0.30490    0.62340    1.000
    N332     N        0.39150    0.30700    0.64580    1.000
    C222     C        0.45550    0.30810    0.63700    1.000
    H222     H        0.49350    0.30900    0.64830    1.000
    N333     N        0.45510    0.30760    0.60910    1.000
    C223     C        0.37570    0.22790    0.75480    1.000
    H223     H        0.37620    0.22400    0.77400    1.000
    N334     N        0.37450    0.26980    0.74110    1.000
    N335     N        0.37420    0.26050    0.71340    1.000
    C224     C        0.37530    0.21290    0.71000    1.000
    H224     H        0.37540    0.19690    0.69310    1.000
    N336     N        0.37630    0.19280    0.73560    1.000
    C225     C        0.37510    0.04160    0.71208    1.000
    H225     H        0.37400    0.05630    0.69480    1.000
    N337     N        0.37660    0.06330    0.73678    1.000
    C226     C        0.37800    0.03010    0.75655    1.000
    H226     H        0.37920    0.03540    0.77570    1.000
    N338     N        0.37740    0.98780    0.74410    1.000
    N339     N        0.37560    0.99490    0.71660    1.000
    N340     N        0.20560    0.10340    0.79870    1.000
    N341     N        0.19940    0.15050    0.79660    1.000
    C227     C        0.25290    0.16690    0.78250    1.000
    H227     H        0.26140    0.19840    0.77810    1.000
    N342     N        0.29210    0.12980    0.77600    1.000
    C228     C        0.26280    0.09060    0.78600    1.000
    H228     H        0.27930    0.05990    0.78440    1.000
    N343     N        0.20510    0.10280    0.94860    1.000
    N344     N        0.19980    0.15040    0.95020    1.000
    C229     C        0.25330    0.16670    0.96450    1.000
    H229     H        0.26220    0.19830    0.96870    1.000
    N345     N        0.29170    0.12930    0.97180    1.000
    C230     C        0.26190    0.08980    0.96200    1.000
    H230     H        0.27770    0.05900    0.96400    1.000
    N346     N        0.11780    0.04780    0.84970    1.000
    C231     C        0.14950    0.06640    0.87230    1.000
    H231     H        0.18590    0.08710    0.87200    1.000
    N347     N        0.11870    0.04940    0.89560    1.000
    C232     C        0.06780    0.02040    0.88730    1.000
    H232     H        0.03860    0.00400    0.89900    1.000
    N348     N        0.06730    0.01940    0.85900    1.000
    Zn49     Zn       0.13085    0.05975    0.93578    1.000
    Zn50     Zn       0.13151    0.05896    0.81028    1.000
    Zn51     Zn       0.37764    0.12826    0.75242    1.000
    C233     C        0.14260    0.97030    0.97120    1.000
    H233     H        0.18380    0.97860    0.97900    1.000
    N349     N        0.10780    0.99580    0.95330    1.000
    N350     N        0.05250    0.97230    0.94710    1.000
    C234     C        0.05310    0.93220    0.96120    1.000
    H234     H        0.02010    0.90890    0.96080    1.000
    N351     N        0.10880    0.93100    0.97610    1.000
    N352     N        0.10920    0.05620    0.85060    1.000
    C235     C        0.14850    0.05580    0.87330    1.000
    H235     H        0.19530    0.05490    0.87340    1.000
    N353     N        0.10850    0.05700    0.89580    1.000
    C236     C        0.04450    0.05810    0.88700    1.000
    H236     H        0.00650    0.05900    0.89830    1.000
    N354     N        0.04490    0.05760    0.85910    1.000
    C237     C        0.12430    0.97790    0.00480    1.000
    H237     H        0.12380    0.97400    0.02400    1.000
    N355     N        0.12550    0.01980    0.99110    1.000
    N356     N        0.12580    0.01050    0.96340    1.000
    C238     C        0.12470    0.96290    0.96000    1.000
    H238     H        0.12460    0.94690    0.94310    1.000
    N357     N        0.12370    0.94280    0.98560    1.000
    C239     C        0.37510    0.54160    0.21208    1.000
    H239     H        0.37400    0.55630    0.19480    1.000
    N358     N        0.37660    0.56330    0.23678    1.000
    C240     C        0.37800    0.53010    0.25655    1.000
    H240     H        0.37920    0.53540    0.27570    1.000
    N359     N        0.37740    0.48780    0.24410    1.000
    N360     N        0.37560    0.49490    0.21660    1.000
    N361     N        0.20560    0.60340    0.29870    1.000
    N362     N        0.19940    0.65050    0.29660    1.000
    C241     C        0.25290    0.66690    0.28250    1.000
    H241     H        0.26140    0.69840    0.27810    1.000
    N363     N        0.29210    0.62980    0.27600    1.000
    C242     C        0.26280    0.59060    0.28600    1.000
    H242     H        0.27930    0.55990    0.28440    1.000
    N364     N        0.20510    0.60280    0.44860    1.000
    N365     N        0.19980    0.65040    0.45020    1.000
    C243     C        0.25330    0.66670    0.46450    1.000
    H243     H        0.26220    0.69830    0.46870    1.000
    N366     N        0.29170    0.62930    0.47180    1.000
    C244     C        0.26190    0.58980    0.46200    1.000
    H244     H        0.27770    0.55900    0.46400    1.000
    N367     N        0.11780    0.54780    0.34970    1.000
    C245     C        0.14950    0.56640    0.37230    1.000
    H245     H        0.18590    0.58710    0.37200    1.000
    N368     N        0.11870    0.54940    0.39560    1.000
    C246     C        0.06780    0.52040    0.38730    1.000
    H246     H        0.03860    0.50400    0.39900    1.000
    N369     N        0.06730    0.51940    0.35900    1.000
    Zn52     Zn       0.13085    0.55975    0.43578    1.000
    Zn53     Zn       0.13151    0.55896    0.31028    1.000
    Zn54     Zn       0.37764    0.62826    0.25242    1.000
    C247     C        0.14260    0.47030    0.47120    1.000
    H247     H        0.18380    0.47860    0.47900    1.000
    N370     N        0.10780    0.49580    0.45330    1.000
    N371     N        0.05250    0.47230    0.44710    1.000
    C248     C        0.05310    0.43220    0.46120    1.000
    H248     H        0.02010    0.40890    0.46080    1.000
    N372     N        0.10880    0.43100    0.47610    1.000
    N373     N        0.10920    0.55620    0.35060    1.000
    C249     C        0.14850    0.55580    0.37330    1.000
    H249     H        0.19530    0.55490    0.37340    1.000
    N374     N        0.10850    0.55700    0.39580    1.000
    C250     C        0.04450    0.55810    0.38700    1.000
    H250     H        0.00650    0.55900    0.39830    1.000
    N375     N        0.04490    0.55760    0.35910    1.000
    C251     C        0.12430    0.47790    0.50480    1.000
    H251     H        0.12380    0.47400    0.52400    1.000
    N376     N        0.12550    0.51980    0.49110    1.000
    N377     N        0.12580    0.51050    0.46340    1.000
    C252     C        0.12470    0.46290    0.46000    1.000
    H252     H        0.12460    0.44690    0.44310    1.000
    N378     N        0.12370    0.44280    0.48560    1.000
    C253     C        0.87510    0.04160    0.21208    1.000
    H253     H        0.87400    0.05630    0.19480    1.000
    N379     N        0.87660    0.06330    0.23678    1.000
    C254     C        0.87800    0.03010    0.25655    1.000
    H254     H        0.87920    0.03540    0.27570    1.000
    N380     N        0.87740    0.98780    0.24410    1.000
    N381     N        0.87560    0.99490    0.21660    1.000
    N382     N        0.70560    0.10340    0.29870    1.000
    N383     N        0.69940    0.15050    0.29660    1.000
    C255     C        0.75290    0.16690    0.28250    1.000
    H255     H        0.76140    0.19840    0.27810    1.000
    N384     N        0.79210    0.12980    0.27600    1.000
    C256     C        0.76280    0.09060    0.28600    1.000
    H256     H        0.77930    0.05990    0.28440    1.000
    N385     N        0.70510    0.10280    0.44860    1.000
    N386     N        0.69980    0.15040    0.45020    1.000
    C257     C        0.75330    0.16670    0.46450    1.000
    H257     H        0.76220    0.19830    0.46870    1.000
    N387     N        0.79170    0.12930    0.47180    1.000
    C258     C        0.76190    0.08980    0.46200    1.000
    H258     H        0.77770    0.05900    0.46400    1.000
    N388     N        0.61780    0.04780    0.34970    1.000
    C259     C        0.64950    0.06640    0.37230    1.000
    H259     H        0.68590    0.08710    0.37200    1.000
    N389     N        0.61870    0.04940    0.39560    1.000
    C260     C        0.56780    0.02040    0.38730    1.000
    H260     H        0.53860    0.00400    0.39900    1.000
    N390     N        0.56730    0.01940    0.35900    1.000
    Zn55     Zn       0.63085    0.05975    0.43578    1.000
    Zn56     Zn       0.63151    0.05896    0.31028    1.000
    Zn57     Zn       0.87764    0.12826    0.25242    1.000
    C261     C        0.64260    0.97030    0.47120    1.000
    H261     H        0.68380    0.97860    0.47900    1.000
    N391     N        0.60780    0.99580    0.45330    1.000
    N392     N        0.55250    0.97230    0.44710    1.000
    C262     C        0.55310    0.93220    0.46120    1.000
    H262     H        0.52010    0.90890    0.46080    1.000
    N393     N        0.60880    0.93100    0.47610    1.000
    N394     N        0.60920    0.05620    0.35060    1.000
    C263     C        0.64850    0.05580    0.37330    1.000
    H263     H        0.69530    0.05490    0.37340    1.000
    N395     N        0.60850    0.05700    0.39580    1.000
    C264     C        0.54450    0.05810    0.38700    1.000
    H264     H        0.50650    0.05900    0.39830    1.000
    N396     N        0.54490    0.05760    0.35910    1.000
    C265     C        0.62430    0.97790    0.50480    1.000
    H265     H        0.62380    0.97400    0.52400    1.000
    N397     N        0.62550    0.01980    0.49110    1.000
    N398     N        0.62580    0.01050    0.46340    1.000
    C266     C        0.62470    0.96290    0.46000    1.000
    H266     H        0.62460    0.94690    0.44310    1.000
    N399     N        0.62370    0.94280    0.48560    1.000
    C267     C        0.87510    0.54160    0.71208    1.000
    H267     H        0.87400    0.55630    0.69480    1.000
    N400     N        0.87660    0.56330    0.73678    1.000
    C268     C        0.87800    0.53010    0.75655    1.000
    H268     H        0.87920    0.53540    0.77570    1.000
    N401     N        0.87740    0.48780    0.74410    1.000
    N402     N        0.87560    0.49490    0.71660    1.000
    N403     N        0.70560    0.60340    0.79870    1.000
    N404     N        0.69940    0.65050    0.79660    1.000
    C269     C        0.75290    0.66690    0.78250    1.000
    H269     H        0.76140    0.69840    0.77810    1.000
    N405     N        0.79210    0.62980    0.77600    1.000
    C270     C        0.76280    0.59060    0.78600    1.000
    H270     H        0.77930    0.55990    0.78440    1.000
    N406     N        0.70510    0.60280    0.94860    1.000
    N407     N        0.69980    0.65040    0.95020    1.000
    C271     C        0.75330    0.66670    0.96450    1.000
    H271     H        0.76220    0.69830    0.96870    1.000
    N408     N        0.79170    0.62930    0.97180    1.000
    C272     C        0.76190    0.58980    0.96200    1.000
    H272     H        0.77770    0.55900    0.96400    1.000
    N409     N        0.61780    0.54780    0.84970    1.000
    C273     C        0.64950    0.56640    0.87230    1.000
    H273     H        0.68590    0.58710    0.87200    1.000
    N410     N        0.61870    0.54940    0.89560    1.000
    C274     C        0.56780    0.52040    0.88730    1.000
    H274     H        0.53860    0.50400    0.89900    1.000
    N411     N        0.56730    0.51940    0.85900    1.000
    Zn58     Zn       0.63085    0.55975    0.93578    1.000
    Zn59     Zn       0.63151    0.55896    0.81028    1.000
    Zn60     Zn       0.87764    0.62826    0.75242    1.000
    C275     C        0.64260    0.47030    0.97120    1.000
    H275     H        0.68380    0.47860    0.97900    1.000
    N412     N        0.60780    0.49580    0.95330    1.000
    N413     N        0.55250    0.47230    0.94710    1.000
    C276     C        0.55310    0.43220    0.96120    1.000
    H276     H        0.52010    0.40890    0.96080    1.000
    N414     N        0.60880    0.43100    0.97610    1.000
    N415     N        0.60920    0.55620    0.85060    1.000
    C277     C        0.64850    0.55580    0.87330    1.000
    H277     H        0.69530    0.55490    0.87340    1.000
    N416     N        0.60850    0.55700    0.89580    1.000
    C278     C        0.54450    0.55810    0.88700    1.000
    H278     H        0.50650    0.55900    0.89830    1.000
    N417     N        0.54490    0.55760    0.85910    1.000
    C279     C        0.62430    0.47790    0.00480    1.000
    H279     H        0.62380    0.47400    0.02400    1.000
    N418     N        0.62550    0.51980    0.99110    1.000
    N419     N        0.62580    0.51050    0.96340    1.000
    C280     C        0.62470    0.46290    0.96000    1.000
    H280     H        0.62460    0.44690    0.94310    1.000
    N420     N        0.62370    0.44280    0.98560    1.000
    C281     C        0.87490    0.20840    0.71208    1.000
    H281     H        0.87600    0.19370    0.69480    1.000
    N421     N        0.87340    0.18670    0.73678    1.000
    C282     C        0.87200    0.21990    0.75655    1.000
    H282     H        0.87080    0.21460    0.77570    1.000
    N422     N        0.87260    0.26220    0.74410    1.000
    N423     N        0.87440    0.25510    0.71660    1.000
    N424     N        0.04440    0.14660    0.79870    1.000
    N425     N        0.05060    0.09950    0.79660    1.000
    C283     C        0.99710    0.08310    0.78250    1.000
    H283     H        0.98860    0.05160    0.77810    1.000
    N426     N        0.95790    0.12020    0.77600    1.000
    C284     C        0.98720    0.15940    0.78600    1.000
    H284     H        0.97070    0.19010    0.78440    1.000
    N427     N        0.04490    0.14720    0.94860    1.000
    N428     N        0.05020    0.09960    0.95020    1.000
    C285     C        0.99670    0.08330    0.96450    1.000
    H285     H        0.98780    0.05170    0.96870    1.000
    N429     N        0.95830    0.12070    0.97180    1.000
    C286     C        0.98810    0.16020    0.96200    1.000
    H286     H        0.97230    0.19100    0.96400    1.000
    N430     N        0.13220    0.20220    0.84970    1.000
    C287     C        0.10050    0.18360    0.87230    1.000
    H287     H        0.06410    0.16290    0.87200    1.000
    N431     N        0.13130    0.20060    0.89560    1.000
    C288     C        0.18220    0.22960    0.88730    1.000
    H288     H        0.21140    0.24600    0.89900    1.000
    N432     N        0.18270    0.23060    0.85900    1.000
    Zn61     Zn       0.11915    0.19025    0.93578    1.000
    Zn62     Zn       0.11849    0.19104    0.81028    1.000
    Zn63     Zn       0.87236    0.12174    0.75242    1.000
    C289     C        0.10740    0.27970    0.97120    1.000
    H289     H        0.06620    0.27140    0.97900    1.000
    N433     N        0.14220    0.25420    0.95330    1.000
    N434     N        0.19750    0.27770    0.94710    1.000
    C290     C        0.19690    0.31780    0.96120    1.000
    H290     H        0.22990    0.34110    0.96080    1.000
    N435     N        0.14120    0.31900    0.97610    1.000
    N436     N        0.14080    0.19380    0.85060    1.000
    C291     C        0.10150    0.19420    0.87330    1.000
    H291     H        0.05470    0.19510    0.87340    1.000
    N437     N        0.14150    0.19300    0.89580    1.000
    C292     C        0.20550    0.19190    0.88700    1.000
    H292     H        0.24350    0.19100    0.89830    1.000
    N438     N        0.20510    0.19240    0.85910    1.000
    C293     C        0.12570    0.27210    0.00480    1.000
    H293     H        0.12620    0.27600    0.02400    1.000
    N439     N        0.12450    0.23020    0.99110    1.000
    N440     N        0.12420    0.23950    0.96340    1.000
    C294     C        0.12530    0.28710    0.96000    1.000
    H294     H        0.12540    0.30310    0.94310    1.000
    N441     N        0.12630    0.30720    0.98560    1.000
    C295     C        0.87490    0.70840    0.21208    1.000
    H295     H        0.87600    0.69370    0.19480    1.000
    N442     N        0.87340    0.68670    0.23678    1.000
    C296     C        0.87200    0.71990    0.25655    1.000
    H296     H        0.87080    0.71460    0.27570    1.000
    N443     N        0.87260    0.76220    0.24410    1.000
    N444     N        0.87440    0.75510    0.21660    1.000
    N445     N        0.04440    0.64660    0.29870    1.000
    N446     N        0.05060    0.59950    0.29660    1.000
    C297     C        0.99710    0.58310    0.28250    1.000
    H297     H        0.98860    0.55160    0.27810    1.000
    N447     N        0.95790    0.62020    0.27600    1.000
    C298     C        0.98720    0.65940    0.28600    1.000
    H298     H        0.97070    0.69010    0.28440    1.000
    N448     N        0.04490    0.64720    0.44860    1.000
    N449     N        0.05020    0.59960    0.45020    1.000
    C299     C        0.99670    0.58330    0.46450    1.000
    H299     H        0.98780    0.55170    0.46870    1.000
    N450     N        0.95830    0.62070    0.47180    1.000
    C300     C        0.98810    0.66020    0.46200    1.000
    H300     H        0.97230    0.69100    0.46400    1.000
    N451     N        0.13220    0.70220    0.34970    1.000
    C301     C        0.10050    0.68360    0.37230    1.000
    H301     H        0.06410    0.66290    0.37200    1.000
    N452     N        0.13130    0.70060    0.39560    1.000
    C302     C        0.18220    0.72960    0.38730    1.000
    H302     H        0.21140    0.74600    0.39900    1.000
    N453     N        0.18270    0.73060    0.35900    1.000
    Zn64     Zn       0.11915    0.69025    0.43578    1.000
    Zn65     Zn       0.11849    0.69104    0.31028    1.000
    Zn66     Zn       0.87236    0.62174    0.25242    1.000
    C303     C        0.10740    0.77970    0.47120    1.000
    H303     H        0.06620    0.77140    0.47900    1.000
    N454     N        0.14220    0.75420    0.45330    1.000
    N455     N        0.19750    0.77770    0.44710    1.000
    C304     C        0.19690    0.81780    0.46120    1.000
    H304     H        0.22990    0.84110    0.46080    1.000
    N456     N        0.14120    0.81900    0.47610    1.000
    N457     N        0.14080    0.69380    0.35060    1.000
    C305     C        0.10150    0.69420    0.37330    1.000
    H305     H        0.05470    0.69510    0.37340    1.000
    N458     N        0.14150    0.69300    0.39580    1.000
    C306     C        0.20550    0.69190    0.38700    1.000
    H306     H        0.24350    0.69100    0.39830    1.000
    N459     N        0.20510    0.69240    0.35910    1.000
    C307     C        0.12570    0.77210    0.50480    1.000
    H307     H        0.12620    0.77600    0.52400    1.000
    N460     N        0.12450    0.73020    0.49110    1.000
    N461     N        0.12420    0.73950    0.46340    1.000
    C308     C        0.12530    0.78710    0.46000    1.000
    H308     H        0.12540    0.80310    0.44310    1.000
    N462     N        0.12630    0.80720    0.48560    1.000
    C309     C        0.37490    0.20840    0.21208    1.000
    H309     H        0.37600    0.19370    0.19480    1.000
    N463     N        0.37340    0.18670    0.23678    1.000
    C310     C        0.37200    0.21990    0.25655    1.000
    H310     H        0.37080    0.21460    0.27570    1.000
    N464     N        0.37260    0.26220    0.24410    1.000
    N465     N        0.37440    0.25510    0.21660    1.000
    N466     N        0.54440    0.14660    0.29870    1.000
    N467     N        0.55060    0.09950    0.29660    1.000
    C311     C        0.49710    0.08310    0.28250    1.000
    H311     H        0.48860    0.05160    0.27810    1.000
    N468     N        0.45790    0.12020    0.27600    1.000
    C312     C        0.48720    0.15940    0.28600    1.000
    H312     H        0.47070    0.19010    0.28440    1.000
    N469     N        0.54490    0.14720    0.44860    1.000
    N470     N        0.55020    0.09960    0.45020    1.000
    C313     C        0.49670    0.08330    0.46450    1.000
    H313     H        0.48780    0.05170    0.46870    1.000
    N471     N        0.45830    0.12070    0.47180    1.000
    C314     C        0.48810    0.16020    0.46200    1.000
    H314     H        0.47230    0.19100    0.46400    1.000
    N472     N        0.63220    0.20220    0.34970    1.000
    C315     C        0.60050    0.18360    0.37230    1.000
    H315     H        0.56410    0.16290    0.37200    1.000
    N473     N        0.63130    0.20060    0.39560    1.000
    C316     C        0.68220    0.22960    0.38730    1.000
    H316     H        0.71140    0.24600    0.39900    1.000
    N474     N        0.68270    0.23060    0.35900    1.000
    Zn67     Zn       0.61915    0.19025    0.43578    1.000
    Zn68     Zn       0.61849    0.19104    0.31028    1.000
    Zn69     Zn       0.37236    0.12174    0.25242    1.000
    C317     C        0.60740    0.27970    0.47120    1.000
    H317     H        0.56620    0.27140    0.47900    1.000
    N475     N        0.64220    0.25420    0.45330    1.000
    N476     N        0.69750    0.27770    0.44710    1.000
    C318     C        0.69690    0.31780    0.46120    1.000
    H318     H        0.72990    0.34110    0.46080    1.000
    N477     N        0.64120    0.31900    0.47610    1.000
    N478     N        0.64080    0.19380    0.35060    1.000
    C319     C        0.60150    0.19420    0.37330    1.000
    H319     H        0.55470    0.19510    0.37340    1.000
    N479     N        0.64150    0.19300    0.39580    1.000
    C320     C        0.70550    0.19190    0.38700    1.000
    H320     H        0.74350    0.19100    0.39830    1.000
    N480     N        0.70510    0.19240    0.35910    1.000
    C321     C        0.62570    0.27210    0.50480    1.000
    H321     H        0.62620    0.27600    0.52400    1.000
    N481     N        0.62450    0.23020    0.49110    1.000
    N482     N        0.62420    0.23950    0.46340    1.000
    C322     C        0.62530    0.28710    0.46000    1.000
    H322     H        0.62540    0.30310    0.44310    1.000
    N483     N        0.62630    0.30720    0.48560    1.000
    C323     C        0.37490    0.70840    0.71208    1.000
    H323     H        0.37600    0.69370    0.69480    1.000
    N484     N        0.37340    0.68670    0.73678    1.000
    C324     C        0.37200    0.71990    0.75655    1.000
    H324     H        0.37080    0.71460    0.77570    1.000
    N485     N        0.37260    0.76220    0.74410    1.000
    N486     N        0.37440    0.75510    0.71660    1.000
    N487     N        0.54440    0.64660    0.79870    1.000
    N488     N        0.55060    0.59950    0.79660    1.000
    C325     C        0.49710    0.58310    0.78250    1.000
    H325     H        0.48860    0.55160    0.77810    1.000
    N489     N        0.45790    0.62020    0.77600    1.000
    C326     C        0.48720    0.65940    0.78600    1.000
    H326     H        0.47070    0.69010    0.78440    1.000
    N490     N        0.54490    0.64720    0.94860    1.000
    N491     N        0.55020    0.59960    0.95020    1.000
    C327     C        0.49670    0.58330    0.96450    1.000
    H327     H        0.48780    0.55170    0.96870    1.000
    N492     N        0.45830    0.62070    0.97180    1.000
    C328     C        0.48810    0.66020    0.96200    1.000
    H328     H        0.47230    0.69100    0.96400    1.000
    N493     N        0.63220    0.70220    0.84970    1.000
    C329     C        0.60050    0.68360    0.87230    1.000
    H329     H        0.56410    0.66290    0.87200    1.000
    N494     N        0.63130    0.70060    0.89560    1.000
    C330     C        0.68220    0.72960    0.88730    1.000
    H330     H        0.71140    0.74600    0.89900    1.000
    N495     N        0.68270    0.73060    0.85900    1.000
    Zn70     Zn       0.61915    0.69025    0.93578    1.000
    Zn71     Zn       0.61849    0.69104    0.81028    1.000
    Zn72     Zn       0.37236    0.62174    0.75242    1.000
    C331     C        0.60740    0.77970    0.97120    1.000
    H331     H        0.56620    0.77140    0.97900    1.000
    N496     N        0.64220    0.75420    0.95330    1.000
    N497     N        0.69750    0.77770    0.94710    1.000
    C332     C        0.69690    0.81780    0.96120    1.000
    H332     H        0.72990    0.84110    0.96080    1.000
    N498     N        0.64120    0.81900    0.97610    1.000
    N499     N        0.64080    0.69380    0.85060    1.000
    C333     C        0.60150    0.69420    0.87330    1.000
    H333     H        0.55470    0.69510    0.87340    1.000
    N500     N        0.64150    0.69300    0.89580    1.000
    C334     C        0.70550    0.69190    0.88700    1.000
    H334     H        0.74350    0.69100    0.89830    1.000
    N501     N        0.70510    0.69240    0.85910    1.000
    C335     C        0.62570    0.77210    0.00480    1.000
    H335     H        0.62620    0.77600    0.02400    1.000
    N502     N        0.62450    0.73020    0.99110    1.000
    N503     N        0.62420    0.73950    0.96340    1.000
    C336     C        0.62530    0.78710    0.96000    1.000
    H336     H        0.62540    0.80310    0.94310    1.000
    N504     N        0.62630    0.80720    0.98560    1.000
    C337     C        0.87490    0.04160    0.53792    1.000
    H337     H        0.87600    0.05630    0.55520    1.000
    N505     N        0.87340    0.06330    0.51322    1.000
    C338     C        0.87200    0.03010    0.49345    1.000
    H338     H        0.87080    0.03540    0.47430    1.000
    N506     N        0.87260    0.98780    0.50590    1.000
    N507     N        0.87440    0.99490    0.53340    1.000
    N508     N        0.04440    0.10340    0.45130    1.000
    N509     N        0.05060    0.15050    0.45340    1.000
    C339     C        0.99710    0.16690    0.46750    1.000
    H339     H        0.98860    0.19840    0.47190    1.000
    N510     N        0.95790    0.12980    0.47400    1.000
    C340     C        0.98720    0.09060    0.46400    1.000
    H340     H        0.97070    0.05990    0.46560    1.000
    N511     N        0.04490    0.10280    0.30140    1.000
    N512     N        0.05020    0.15040    0.29980    1.000
    C341     C        0.99670    0.16670    0.28550    1.000
    H341     H        0.98780    0.19830    0.28130    1.000
    N513     N        0.95830    0.12930    0.27820    1.000
    C342     C        0.98810    0.08980    0.28800    1.000
    H342     H        0.97230    0.05900    0.28600    1.000
    N514     N        0.13220    0.04780    0.40030    1.000
    C343     C        0.10050    0.06640    0.37770    1.000
    H343     H        0.06410    0.08710    0.37800    1.000
    N515     N        0.13130    0.04940    0.35440    1.000
    C344     C        0.18220    0.02040    0.36270    1.000
    H344     H        0.21140    0.00400    0.35100    1.000
    N516     N        0.18270    0.01940    0.39100    1.000
    Zn73     Zn       0.11915    0.05975    0.31422    1.000
    Zn74     Zn       0.11849    0.05896    0.43972    1.000
    Zn75     Zn       0.87236    0.12826    0.49758    1.000
    C345     C        0.10740    0.97030    0.27880    1.000
    H345     H        0.06620    0.97860    0.27100    1.000
    N517     N        0.14220    0.99580    0.29670    1.000
    N518     N        0.19750    0.97230    0.30290    1.000
    C346     C        0.19690    0.93220    0.28880    1.000
    H346     H        0.22990    0.90890    0.28920    1.000
    N519     N        0.14120    0.93100    0.27390    1.000
    N520     N        0.14080    0.05620    0.39940    1.000
    C347     C        0.10150    0.05580    0.37670    1.000
    H347     H        0.05470    0.05490    0.37660    1.000
    N521     N        0.14150    0.05700    0.35420    1.000
    C348     C        0.20550    0.05810    0.36300    1.000
    H348     H        0.24350    0.05900    0.35170    1.000
    N522     N        0.20510    0.05760    0.39090    1.000
    C349     C        0.12570    0.97790    0.24520    1.000
    H349     H        0.12620    0.97400    0.22600    1.000
    N523     N        0.12450    0.01980    0.25890    1.000
    N524     N        0.12420    0.01050    0.28660    1.000
    C350     C        0.12530    0.96290    0.29000    1.000
    H350     H        0.12540    0.94690    0.30690    1.000
    N525     N        0.12630    0.94280    0.26440    1.000
    C351     C        0.87490    0.54160    0.03792    1.000
    H351     H        0.87600    0.55630    0.05520    1.000
    N526     N        0.87340    0.56330    0.01322    1.000
    C352     C        0.87200    0.53010    0.99345    1.000
    H352     H        0.87080    0.53540    0.97430    1.000
    N527     N        0.87260    0.48780    0.00590    1.000
    N528     N        0.87440    0.49490    0.03340    1.000
    N529     N        0.04440    0.60340    0.95130    1.000
    N530     N        0.05060    0.65050    0.95340    1.000
    C353     C        0.99710    0.66690    0.96750    1.000
    H353     H        0.98860    0.69840    0.97190    1.000
    N531     N        0.95790    0.62980    0.97400    1.000
    C354     C        0.98720    0.59060    0.96400    1.000
    H354     H        0.97070    0.55990    0.96560    1.000
    N532     N        0.04490    0.60280    0.80140    1.000
    N533     N        0.05020    0.65040    0.79980    1.000
    C355     C        0.99670    0.66670    0.78550    1.000
    H355     H        0.98780    0.69830    0.78130    1.000
    N534     N        0.95830    0.62930    0.77820    1.000
    C356     C        0.98810    0.58980    0.78800    1.000
    H356     H        0.97230    0.55900    0.78600    1.000
    N535     N        0.13220    0.54780    0.90030    1.000
    C357     C        0.10050    0.56640    0.87770    1.000
    H357     H        0.06410    0.58710    0.87800    1.000
    N536     N        0.13130    0.54940    0.85440    1.000
    C358     C        0.18220    0.52040    0.86270    1.000
    H358     H        0.21140    0.50400    0.85100    1.000
    N537     N        0.18270    0.51940    0.89100    1.000
    Zn76     Zn       0.11915    0.55975    0.81422    1.000
    Zn77     Zn       0.11849    0.55896    0.93972    1.000
    Zn78     Zn       0.87236    0.62826    0.99758    1.000
    C359     C        0.10740    0.47030    0.77880    1.000
    H359     H        0.06620    0.47860    0.77100    1.000
    N538     N        0.14220    0.49580    0.79670    1.000
    N539     N        0.19750    0.47230    0.80290    1.000
    C360     C        0.19690    0.43220    0.78880    1.000
    H360     H        0.22990    0.40890    0.78920    1.000
    N540     N        0.14120    0.43100    0.77390    1.000
    N541     N        0.14080    0.55620    0.89940    1.000
    C361     C        0.10150    0.55580    0.87670    1.000
    H361     H        0.05470    0.55490    0.87660    1.000
    N542     N        0.14150    0.55700    0.85420    1.000
    C362     C        0.20550    0.55810    0.86300    1.000
    H362     H        0.24350    0.55900    0.85170    1.000
    N543     N        0.20510    0.55760    0.89090    1.000
    C363     C        0.12570    0.47790    0.74520    1.000
    H363     H        0.12620    0.47400    0.72600    1.000
    N544     N        0.12450    0.51980    0.75890    1.000
    N545     N        0.12420    0.51050    0.78660    1.000
    C364     C        0.12530    0.46290    0.79000    1.000
    H364     H        0.12540    0.44690    0.80690    1.000
    N546     N        0.12630    0.44280    0.76440    1.000
    C365     C        0.37490    0.04160    0.03792    1.000
    H365     H        0.37600    0.05630    0.05520    1.000
    N547     N        0.37340    0.06330    0.01322    1.000
    C366     C        0.37200    0.03010    0.99345    1.000
    H366     H        0.37080    0.03540    0.97430    1.000
    N548     N        0.37260    0.98780    0.00590    1.000
    N549     N        0.37440    0.99490    0.03340    1.000
    N550     N        0.54440    0.10340    0.95130    1.000
    N551     N        0.55060    0.15050    0.95340    1.000
    C367     C        0.49710    0.16690    0.96750    1.000
    H367     H        0.48860    0.19840    0.97190    1.000
    N552     N        0.45790    0.12980    0.97400    1.000
    C368     C        0.48720    0.09060    0.96400    1.000
    H368     H        0.47070    0.05990    0.96560    1.000
    N553     N        0.54490    0.10280    0.80140    1.000
    N554     N        0.55020    0.15040    0.79980    1.000
    C369     C        0.49670    0.16670    0.78550    1.000
    H369     H        0.48780    0.19830    0.78130    1.000
    N555     N        0.45830    0.12930    0.77820    1.000
    C370     C        0.48810    0.08980    0.78800    1.000
    H370     H        0.47230    0.05900    0.78600    1.000
    N556     N        0.63220    0.04780    0.90030    1.000
    C371     C        0.60050    0.06640    0.87770    1.000
    H371     H        0.56410    0.08710    0.87800    1.000
    N557     N        0.63130    0.04940    0.85440    1.000
    C372     C        0.68220    0.02040    0.86270    1.000
    H372     H        0.71140    0.00400    0.85100    1.000
    N558     N        0.68270    0.01940    0.89100    1.000
    Zn79     Zn       0.61915    0.05975    0.81422    1.000
    Zn80     Zn       0.61849    0.05896    0.93972    1.000
    Zn81     Zn       0.37236    0.12826    0.99758    1.000
    C373     C        0.60740    0.97030    0.77880    1.000
    H373     H        0.56620    0.97860    0.77100    1.000
    N559     N        0.64220    0.99580    0.79670    1.000
    N560     N        0.69750    0.97230    0.80290    1.000
    C374     C        0.69690    0.93220    0.78880    1.000
    H374     H        0.72990    0.90890    0.78920    1.000
    N561     N        0.64120    0.93100    0.77390    1.000
    N562     N        0.64080    0.05620    0.89940    1.000
    C375     C        0.60150    0.05580    0.87670    1.000
    H375     H        0.55470    0.05490    0.87660    1.000
    N563     N        0.64150    0.05700    0.85420    1.000
    C376     C        0.70550    0.05810    0.86300    1.000
    H376     H        0.74350    0.05900    0.85170    1.000
    N564     N        0.70510    0.05760    0.89090    1.000
    C377     C        0.62570    0.97790    0.74520    1.000
    H377     H        0.62620    0.97400    0.72600    1.000
    N565     N        0.62450    0.01980    0.75890    1.000
    N566     N        0.62420    0.01050    0.78660    1.000
    C378     C        0.62530    0.96290    0.79000    1.000
    H378     H        0.62540    0.94690    0.80690    1.000
    N567     N        0.62630    0.94280    0.76440    1.000
    C379     C        0.37490    0.54160    0.53792    1.000
    H379     H        0.37600    0.55630    0.55520    1.000
    N568     N        0.37340    0.56330    0.51322    1.000
    C380     C        0.37200    0.53010    0.49345    1.000
    H380     H        0.37080    0.53540    0.47430    1.000
    N569     N        0.37260    0.48780    0.50590    1.000
    N570     N        0.37440    0.49490    0.53340    1.000
    N571     N        0.54440    0.60340    0.45130    1.000
    N572     N        0.55060    0.65050    0.45340    1.000
    C381     C        0.49710    0.66690    0.46750    1.000
    H381     H        0.48860    0.69840    0.47190    1.000
    N573     N        0.45790    0.62980    0.47400    1.000
    C382     C        0.48720    0.59060    0.46400    1.000
    H382     H        0.47070    0.55990    0.46560    1.000
    N574     N        0.54490    0.60280    0.30140    1.000
    N575     N        0.55020    0.65040    0.29980    1.000
    C383     C        0.49670    0.66670    0.28550    1.000
    H383     H        0.48780    0.69830    0.28130    1.000
    N576     N        0.45830    0.62930    0.27820    1.000
    C384     C        0.48810    0.58980    0.28800    1.000
    H384     H        0.47230    0.55900    0.28600    1.000
    N577     N        0.63220    0.54780    0.40030    1.000
    C385     C        0.60050    0.56640    0.37770    1.000
    H385     H        0.56410    0.58710    0.37800    1.000
    N578     N        0.63130    0.54940    0.35440    1.000
    C386     C        0.68220    0.52040    0.36270    1.000
    H386     H        0.71140    0.50400    0.35100    1.000
    N579     N        0.68270    0.51940    0.39100    1.000
    Zn82     Zn       0.61915    0.55975    0.31422    1.000
    Zn83     Zn       0.61849    0.55896    0.43972    1.000
    Zn84     Zn       0.37236    0.62826    0.49758    1.000
    C387     C        0.60740    0.47030    0.27880    1.000
    H387     H        0.56620    0.47860    0.27100    1.000
    N580     N        0.64220    0.49580    0.29670    1.000
    N581     N        0.69750    0.47230    0.30290    1.000
    C388     C        0.69690    0.43220    0.28880    1.000
    H388     H        0.72990    0.40890    0.28920    1.000
    N582     N        0.64120    0.43100    0.27390    1.000
    N583     N        0.64080    0.55620    0.39940    1.000
    C389     C        0.60150    0.55580    0.37670    1.000
    H389     H        0.55470    0.55490    0.37660    1.000
    N584     N        0.64150    0.55700    0.35420    1.000
    C390     C        0.70550    0.55810    0.36300    1.000
    H390     H        0.74350    0.55900    0.35170    1.000
    N585     N        0.70510    0.55760    0.39090    1.000
    C391     C        0.62570    0.47790    0.24520    1.000
    H391     H        0.62620    0.47400    0.22600    1.000
    N586     N        0.62450    0.51980    0.25890    1.000
    N587     N        0.62420    0.51050    0.28660    1.000
    C392     C        0.62530    0.46290    0.29000    1.000
    H392     H        0.62540    0.44690    0.30690    1.000
    N588     N        0.62630    0.44280    0.26440    1.000
    C393     C        0.37510    0.20840    0.53792    1.000
    H393     H        0.37400    0.19370    0.55520    1.000
    N589     N        0.37660    0.18670    0.51322    1.000
    C394     C        0.37800    0.21990    0.49345    1.000
    H394     H        0.37920    0.21460    0.47430    1.000
    N590     N        0.37740    0.26220    0.50590    1.000
    N591     N        0.37560    0.25510    0.53340    1.000
    N592     N        0.20560    0.14660    0.45130    1.000
    N593     N        0.19940    0.09950    0.45340    1.000
    C395     C        0.25290    0.08310    0.46750    1.000
    H395     H        0.26140    0.05160    0.47190    1.000
    N594     N        0.29210    0.12020    0.47400    1.000
    C396     C        0.26280    0.15940    0.46400    1.000
    H396     H        0.27930    0.19010    0.46560    1.000
    N595     N        0.20510    0.14720    0.30140    1.000
    N596     N        0.19980    0.09960    0.29980    1.000
    C397     C        0.25330    0.08330    0.28550    1.000
    H397     H        0.26220    0.05170    0.28130    1.000
    N597     N        0.29170    0.12070    0.27820    1.000
    C398     C        0.26190    0.16020    0.28800    1.000
    H398     H        0.27770    0.19100    0.28600    1.000
    N598     N        0.11780    0.20220    0.40030    1.000
    C399     C        0.14950    0.18360    0.37770    1.000
    H399     H        0.18590    0.16290    0.37800    1.000
    N599     N        0.11870    0.20060    0.35440    1.000
    C400     C        0.06780    0.22960    0.36270    1.000
    H400     H        0.03860    0.24600    0.35100    1.000
    N600     N        0.06730    0.23060    0.39100    1.000
    Zn85     Zn       0.13085    0.19025    0.31422    1.000
    Zn86     Zn       0.13151    0.19104    0.43972    1.000
    Zn87     Zn       0.37764    0.12174    0.49758    1.000
    C401     C        0.14260    0.27970    0.27880    1.000
    H401     H        0.18380    0.27140    0.27100    1.000
    N601     N        0.10780    0.25420    0.29670    1.000
    N602     N        0.05250    0.27770    0.30290    1.000
    C402     C        0.05310    0.31780    0.28880    1.000
    H402     H        0.02010    0.34110    0.28920    1.000
    N603     N        0.10880    0.31900    0.27390    1.000
    N604     N        0.10920    0.19380    0.39940    1.000
    C403     C        0.14850    0.19420    0.37670    1.000
    H403     H        0.19530    0.19510    0.37660    1.000
    N605     N        0.10850    0.19300    0.35420    1.000
    C404     C        0.04450    0.19190    0.36300    1.000
    H404     H        0.00650    0.19100    0.35170    1.000
    N606     N        0.04490    0.19240    0.39090    1.000
    C405     C        0.12430    0.27210    0.24520    1.000
    H405     H        0.12380    0.27600    0.22600    1.000
    N607     N        0.12550    0.23020    0.25890    1.000
    N608     N        0.12580    0.23950    0.28660    1.000
    C406     C        0.12470    0.28710    0.29000    1.000
    H406     H        0.12460    0.30310    0.30690    1.000
    N609     N        0.12370    0.30720    0.26440    1.000
    C407     C        0.37510    0.70840    0.03792    1.000
    H407     H        0.37400    0.69370    0.05520    1.000
    N610     N        0.37660    0.68670    0.01322    1.000
    C408     C        0.37800    0.71990    0.99345    1.000
    H408     H        0.37920    0.71460    0.97430    1.000
    N611     N        0.37740    0.76220    0.00590    1.000
    N612     N        0.37560    0.75510    0.03340    1.000
    N613     N        0.20560    0.64660    0.95130    1.000
    N614     N        0.19940    0.59950    0.95340    1.000
    C409     C        0.25290    0.58310    0.96750    1.000
    H409     H        0.26140    0.55160    0.97190    1.000
    N615     N        0.29210    0.62020    0.97400    1.000
    C410     C        0.26280    0.65940    0.96400    1.000
    H410     H        0.27930    0.69010    0.96560    1.000
    N616     N        0.20510    0.64720    0.80140    1.000
    N617     N        0.19980    0.59960    0.79980    1.000
    C411     C        0.25330    0.58330    0.78550    1.000
    H411     H        0.26220    0.55170    0.78130    1.000
    N618     N        0.29170    0.62070    0.77820    1.000
    C412     C        0.26190    0.66020    0.78800    1.000
    H412     H        0.27770    0.69100    0.78600    1.000
    N619     N        0.11780    0.70220    0.90030    1.000
    C413     C        0.14950    0.68360    0.87770    1.000
    H413     H        0.18590    0.66290    0.87800    1.000
    N620     N        0.11870    0.70060    0.85440    1.000
    C414     C        0.06780    0.72960    0.86270    1.000
    H414     H        0.03860    0.74600    0.85100    1.000
    N621     N        0.06730    0.73060    0.89100    1.000
    Zn88     Zn       0.13085    0.69025    0.81422    1.000
    Zn89     Zn       0.13151    0.69104    0.93972    1.000
    Zn90     Zn       0.37764    0.62174    0.99758    1.000
    C415     C        0.14260    0.77970    0.77880    1.000
    H415     H        0.18380    0.77140    0.77100    1.000
    N622     N        0.10780    0.75420    0.79670    1.000
    N623     N        0.05250    0.77770    0.80290    1.000
    C416     C        0.05310    0.81780    0.78880    1.000
    H416     H        0.02010    0.84110    0.78920    1.000
    N624     N        0.10880    0.81900    0.77390    1.000
    N625     N        0.10920    0.69380    0.89940    1.000
    C417     C        0.14850    0.69420    0.87670    1.000
    H417     H        0.19530    0.69510    0.87660    1.000
    N626     N        0.10850    0.69300    0.85420    1.000
    C418     C        0.04450    0.69190    0.86300    1.000
    H418     H        0.00650    0.69100    0.85170    1.000
    N627     N        0.04490    0.69240    0.89090    1.000
    C419     C        0.12430    0.77210    0.74520    1.000
    H419     H        0.12380    0.77600    0.72600    1.000
    N628     N        0.12550    0.73020    0.75890    1.000
    N629     N        0.12580    0.73950    0.78660    1.000
    C420     C        0.12470    0.78710    0.79000    1.000
    H420     H        0.12460    0.80310    0.80690    1.000
    N630     N        0.12370    0.80720    0.76440    1.000
    C421     C        0.87510    0.20840    0.03792    1.000
    H421     H        0.87400    0.19370    0.05520    1.000
    N631     N        0.87660    0.18670    0.01322    1.000
    C422     C        0.87800    0.21990    0.99345    1.000
    H422     H        0.87920    0.21460    0.97430    1.000
    N632     N        0.87740    0.26220    0.00590    1.000
    N633     N        0.87560    0.25510    0.03340    1.000
    N634     N        0.70560    0.14660    0.95130    1.000
    N635     N        0.69940    0.09950    0.95340    1.000
    C423     C        0.75290    0.08310    0.96750    1.000
    H423     H        0.76140    0.05160    0.97190    1.000
    N636     N        0.79210    0.12020    0.97400    1.000
    C424     C        0.76280    0.15940    0.96400    1.000
    H424     H        0.77930    0.19010    0.96560    1.000
    N637     N        0.70510    0.14720    0.80140    1.000
    N638     N        0.69980    0.09960    0.79980    1.000
    C425     C        0.75330    0.08330    0.78550    1.000
    H425     H        0.76220    0.05170    0.78130    1.000
    N639     N        0.79170    0.12070    0.77820    1.000
    C426     C        0.76190    0.16020    0.78800    1.000
    H426     H        0.77770    0.19100    0.78600    1.000
    N640     N        0.61780    0.20220    0.90030    1.000
    C427     C        0.64950    0.18360    0.87770    1.000
    H427     H        0.68590    0.16290    0.87800    1.000
    N641     N        0.61870    0.20060    0.85440    1.000
    C428     C        0.56780    0.22960    0.86270    1.000
    H428     H        0.53860    0.24600    0.85100    1.000
    N642     N        0.56730    0.23060    0.89100    1.000
    Zn91     Zn       0.63085    0.19025    0.81422    1.000
    Zn92     Zn       0.63151    0.19104    0.93972    1.000
    Zn93     Zn       0.87764    0.12174    0.99758    1.000
    C429     C        0.64260    0.27970    0.77880    1.000
    H429     H        0.68380    0.27140    0.77100    1.000
    N643     N        0.60780    0.25420    0.79670    1.000
    N644     N        0.55250    0.27770    0.80290    1.000
    C430     C        0.55310    0.31780    0.78880    1.000
    H430     H        0.52010    0.34110    0.78920    1.000
    N645     N        0.60880    0.31900    0.77390    1.000
    N646     N        0.60920    0.19380    0.89940    1.000
    C431     C        0.64850    0.19420    0.87670    1.000
    H431     H        0.69530    0.19510    0.87660    1.000
    N647     N        0.60850    0.19300    0.85420    1.000
    C432     C        0.54450    0.19190    0.86300    1.000
    H432     H        0.50650    0.19100    0.85170    1.000
    N648     N        0.54490    0.19240    0.89090    1.000
    C433     C        0.62430    0.27210    0.74520    1.000
    H433     H        0.62380    0.27600    0.72600    1.000
    N649     N        0.62550    0.23020    0.75890    1.000
    N650     N        0.62580    0.23950    0.78660    1.000
    C434     C        0.62470    0.28710    0.79000    1.000
    H434     H        0.62460    0.30310    0.80690    1.000
    N651     N        0.62370    0.30720    0.76440    1.000
    C435     C        0.87510    0.70840    0.53792    1.000
    H435     H        0.87400    0.69370    0.55520    1.000
    N652     N        0.87660    0.68670    0.51322    1.000
    C436     C        0.87800    0.71990    0.49345    1.000
    H436     H        0.87920    0.71460    0.47430    1.000
    N653     N        0.87740    0.76220    0.50590    1.000
    N654     N        0.87560    0.75510    0.53340    1.000
    N655     N        0.70560    0.64660    0.45130    1.000
    N656     N        0.69940    0.59950    0.45340    1.000
    C437     C        0.75290    0.58310    0.46750    1.000
    H437     H        0.76140    0.55160    0.47190    1.000
    N657     N        0.79210    0.62020    0.47400    1.000
    C438     C        0.76280    0.65940    0.46400    1.000
    H438     H        0.77930    0.69010    0.46560    1.000
    N658     N        0.70510    0.64720    0.30140    1.000
    N659     N        0.69980    0.59960    0.29980    1.000
    C439     C        0.75330    0.58330    0.28550    1.000
    H439     H        0.76220    0.55170    0.28130    1.000
    N660     N        0.79170    0.62070    0.27820    1.000
    C440     C        0.76190    0.66020    0.28800    1.000
    H440     H        0.77770    0.69100    0.28600    1.000
    N661     N        0.61780    0.70220    0.40030    1.000
    C441     C        0.64950    0.68360    0.37770    1.000
    H441     H        0.68590    0.66290    0.37800    1.000
    N662     N        0.61870    0.70060    0.35440    1.000
    C442     C        0.56780    0.72960    0.36270    1.000
    H442     H        0.53860    0.74600    0.35100    1.000
    N663     N        0.56730    0.73060    0.39100    1.000
    Zn94     Zn       0.63085    0.69025    0.31422    1.000
    Zn95     Zn       0.63151    0.69104    0.43972    1.000
    Zn96     Zn       0.87764    0.62174    0.49758    1.000
    C443     C        0.64260    0.77970    0.27880    1.000
    H443     H        0.68380    0.77140    0.27100    1.000
    N664     N        0.60780    0.75420    0.29670    1.000
    N665     N        0.55250    0.77770    0.30290    1.000
    C444     C        0.55310    0.81780    0.28880    1.000
    H444     H        0.52010    0.84110    0.28920    1.000
    N666     N        0.60880    0.81900    0.27390    1.000
    N667     N        0.60920    0.69380    0.39940    1.000
    C445     C        0.64850    0.69420    0.37670    1.000
    H445     H        0.69530    0.69510    0.37660    1.000
    N668     N        0.60850    0.69300    0.35420    1.000
    C446     C        0.54450    0.69190    0.36300    1.000
    H446     H        0.50650    0.69100    0.35170    1.000
    N669     N        0.54490    0.69240    0.39090    1.000
    C447     C        0.62430    0.77210    0.24520    1.000
    H447     H        0.62380    0.77600    0.22600    1.000
    N670     N        0.62550    0.73020    0.25890    1.000
    N671     N        0.62580    0.73950    0.28660    1.000
    C448     C        0.62470    0.78710    0.29000    1.000
    H448     H        0.62460    0.80310    0.30690    1.000
    N672     N        0.62370    0.80720    0.26440    1.000
