# CIF file generated by openbabel 3.1.0, see https://openbabel.org
data_I
_chemical_name_common 'image0'
_cell_length_a 14.909
_cell_length_b 7.1963
_cell_length_c 24.592
_cell_angle_alpha 90
_cell_angle_beta 104.312
_cell_angle_gamma 90
_space_group_name_H-M_alt 'P 1'
_space_group_name_Hall 'P 1'
loop_
    _symmetry_equiv_pos_as_xyz
    x,y,z
loop_
    _atom_site_label
    _atom_site_type_symbol
    _atom_site_fract_x
    _atom_site_fract_y
    _atom_site_fract_z
    _atom_site_occupancy
    C1       C        0.41460    0.28790    0.41660    1.000
    C2       C        0.35660    0.19850    0.36471    1.000
    C3       C        0.37900    0.02420    0.34713    1.000
    H1       H        0.42910    0.95920    0.36890    1.000
    C4       C        0.32890    0.94850    0.29880    1.000
    H2       H        0.34600    0.83330    0.28750    1.000
    C5       C        0.25300    0.03810    0.26605    1.000
    C6       C        0.22840    0.21070    0.28350    1.000
    H3       H        0.17620    0.27190    0.26260    1.000
    C7       C        0.28070    0.28960    0.33100    1.000
    H4       H        0.26540    0.40750    0.34120    1.000
    C8       C        0.13590    0.79010    0.23961    1.000
    H5       H        0.11010    0.84830    0.26740    1.000
    H6       H        0.17630    0.69100    0.25660    1.000
    H7       H        0.08690    0.74090    0.21020    1.000
    C9       C        0.19120    0.93440    0.21498    1.000
    C10      C        0.12150    0.05870    0.17580    1.000
    H8       H        0.15370    0.15060    0.15970    1.000
    H9       H        0.08310    0.11910    0.19660    1.000
    H10      H        0.08350    0.98480    0.14650    1.000
    C11      C        0.25080    0.84560    0.17897    1.000
    C12      C        0.31840    0.95340    0.16528    1.000
    H11      H        0.33010    0.07200    0.18040    1.000
    C13      C        0.36900    0.88630    0.12900    1.000
    H12      H        0.41210    0.96390    0.11890    1.000
    C14      C        0.35750    0.70750    0.10736    1.000
    C15      C        0.28820    0.59730    0.12100    1.000
    H13      H        0.27680    0.47810    0.10630    1.000
    C16      C        0.23600    0.66750    0.15710    1.000
    H14      H        0.19100    0.59320    0.16640    1.000
    C17      C        0.41210    0.63580    0.06815    1.000
    C18      C        0.70700    0.03460    0.51840    1.000
    H15      H        0.67060    0.97020    0.48810    1.000
    C19      C        0.75090    0.22530    0.58650    1.000
    H16      H        0.75150    0.32050    0.61210    1.000
    C20      C        0.81920    0.10190    0.58830    1.000
    H17      H        0.87550    0.09870    0.61500    1.000
    C21      C        0.85160    0.84240    0.53228    1.000
    C22      C        0.89680    0.71880    0.57330    1.000
    H18      H        0.88980    0.72840    0.60970    1.000
    C23      C        0.95260    0.58010    0.55960    1.000
    H19      H        0.98130    0.49960    0.58820    1.000
    C24      C        0.96460    0.56740    0.50580    1.000
    C25      C        0.91930    0.69110    0.46490    1.000
    H20      H        0.92470    0.68750    0.42800    1.000
    C26      C        0.86300    0.82950    0.47840    1.000
    H21      H        0.83310    0.91320    0.45100    1.000
    Co1      Co       0.56078    0.33794    0.51174    1.000
    N1       N        0.67950    0.18700    0.54005    1.000
    N2       N        0.79260    0.98410    0.54501    1.000
    O1       O        0.48400    0.20350    0.44455    1.000
    O2       O        0.38840    0.44520    0.42984    1.000
    O3       O        0.47579    0.73120    0.06100    1.000
    O4       O        0.38350    0.48240    0.04411    1.000
    C27      C        0.58540    0.28790    0.08340    1.000
    C28      C        0.64340    0.19850    0.13529    1.000
    C29      C        0.62100    0.02420    0.15287    1.000
    H22      H        0.57090    0.95920    0.13110    1.000
    C30      C        0.67110    0.94850    0.20120    1.000
    H23      H        0.65400    0.83330    0.21250    1.000
    C31      C        0.74700    0.03810    0.23395    1.000
    C32      C        0.77160    0.21070    0.21650    1.000
    H24      H        0.82380    0.27190    0.23740    1.000
    C33      C        0.71930    0.28960    0.16900    1.000
    H25      H        0.73460    0.40750    0.15880    1.000
    C34      C        0.86410    0.79010    0.26039    1.000
    H26      H        0.88990    0.84830    0.23260    1.000
    H27      H        0.82370    0.69100    0.24340    1.000
    H28      H        0.91310    0.74090    0.28980    1.000
    C35      C        0.80880    0.93440    0.28502    1.000
    C36      C        0.87850    0.05870    0.32420    1.000
    H29      H        0.84630    0.15060    0.34030    1.000
    H30      H        0.91690    0.11910    0.30340    1.000
    H31      H        0.91650    0.98480    0.35350    1.000
    C37      C        0.74920    0.84560    0.32103    1.000
    C38      C        0.68160    0.95340    0.33472    1.000
    H32      H        0.66990    0.07200    0.31960    1.000
    C39      C        0.63100    0.88630    0.37100    1.000
    H33      H        0.58790    0.96390    0.38110    1.000
    C40      C        0.64250    0.70750    0.39264    1.000
    C41      C        0.71180    0.59730    0.37900    1.000
    H34      H        0.72320    0.47810    0.39370    1.000
    C42      C        0.76400    0.66750    0.34290    1.000
    H35      H        0.80900    0.59320    0.33360    1.000
    C43      C        0.58790    0.63580    0.43185    1.000
    C44      C        0.29300    0.03460    0.98160    1.000
    H36      H        0.32940    0.97020    0.01190    1.000
    C45      C        0.24910    0.22530    0.91350    1.000
    H37      H        0.24850    0.32050    0.88790    1.000
    C46      C        0.18080    0.10190    0.91170    1.000
    H38      H        0.12450    0.09870    0.88500    1.000
    C47      C        0.14840    0.84240    0.96772    1.000
    C48      C        0.10320    0.71880    0.92670    1.000
    H39      H        0.11020    0.72840    0.89030    1.000
    C49      C        0.04740    0.58010    0.94040    1.000
    H40      H        0.01870    0.49960    0.91180    1.000
    C50      C        0.03540    0.56740    0.99420    1.000
    C51      C        0.08070    0.69110    0.03510    1.000
    H41      H        0.07530    0.68750    0.07200    1.000
    C52      C        0.13700    0.82950    0.02160    1.000
    H42      H        0.16690    0.91320    0.04900    1.000
    Co2      Co       0.43922    0.33794    0.98826    1.000
    N3       N        0.32050    0.18700    0.95995    1.000
    N4       N        0.20740    0.98410    0.95499    1.000
    O5       O        0.51600    0.20350    0.05545    1.000
    O6       O        0.61160    0.44520    0.07016    1.000
    O7       O        0.52421    0.73120    0.43900    1.000
    O8       O        0.61650    0.48240    0.45589    1.000
    C53      C        0.58540    0.71210    0.58340    1.000
    C54      C        0.64340    0.80150    0.63529    1.000
    C55      C        0.62100    0.97580    0.65287    1.000
    H43      H        0.57090    0.04080    0.63110    1.000
    C56      C        0.67110    0.05150    0.70120    1.000
    H44      H        0.65400    0.16670    0.71250    1.000
    C57      C        0.74700    0.96190    0.73395    1.000
    C58      C        0.77160    0.78930    0.71650    1.000
    H45      H        0.82380    0.72810    0.73740    1.000
    C59      C        0.71930    0.71040    0.66900    1.000
    H46      H        0.73460    0.59250    0.65880    1.000
    C60      C        0.86410    0.20990    0.76039    1.000
    H47      H        0.88990    0.15170    0.73260    1.000
    H48      H        0.82370    0.30900    0.74340    1.000
    H49      H        0.91310    0.25910    0.78980    1.000
    C61      C        0.80880    0.06560    0.78502    1.000
    C62      C        0.87850    0.94130    0.82420    1.000
    H50      H        0.84630    0.84940    0.84030    1.000
    H51      H        0.91690    0.88090    0.80340    1.000
    H52      H        0.91650    0.01520    0.85350    1.000
    C63      C        0.74920    0.15440    0.82103    1.000
    C64      C        0.68160    0.04660    0.83472    1.000
    H53      H        0.66990    0.92800    0.81960    1.000
    C65      C        0.63100    0.11370    0.87100    1.000
    H54      H        0.58790    0.03610    0.88110    1.000
    C66      C        0.64250    0.29250    0.89264    1.000
    C67      C        0.71180    0.40270    0.87900    1.000
    H55      H        0.72320    0.52190    0.89370    1.000
    C68      C        0.76400    0.33250    0.84290    1.000
    H56      H        0.80900    0.40680    0.83360    1.000
    C69      C        0.58790    0.36420    0.93185    1.000
    C70      C        0.29300    0.96540    0.48160    1.000
    H57      H        0.32940    0.02980    0.51190    1.000
    C71      C        0.24910    0.77470    0.41350    1.000
    H58      H        0.24850    0.67950    0.38790    1.000
    C72      C        0.18080    0.89810    0.41170    1.000
    H59      H        0.12450    0.90130    0.38500    1.000
    C73      C        0.14840    0.15760    0.46772    1.000
    C74      C        0.10320    0.28120    0.42670    1.000
    H60      H        0.11020    0.27160    0.39030    1.000
    C75      C        0.04740    0.41990    0.44040    1.000
    H61      H        0.01870    0.50040    0.41180    1.000
    C76      C        0.03540    0.43260    0.49420    1.000
    C77      C        0.08070    0.30890    0.53510    1.000
    H62      H        0.07530    0.31250    0.57200    1.000
    C78      C        0.13700    0.17050    0.52160    1.000
    H63      H        0.16690    0.08680    0.54900    1.000
    Co3      Co       0.43922    0.66206    0.48826    1.000
    N5       N        0.32050    0.81300    0.45995    1.000
    N6       N        0.20740    0.01590    0.45499    1.000
    O9       O        0.51600    0.79650    0.55545    1.000
    O10      O        0.61160    0.55480    0.57016    1.000
    O11      O        0.52421    0.26880    0.93900    1.000
    O12      O        0.61650    0.51760    0.95589    1.000
    C79      C        0.41460    0.71210    0.91660    1.000
    C80      C        0.35660    0.80150    0.86471    1.000
    C81      C        0.37900    0.97580    0.84713    1.000
    H64      H        0.42910    0.04080    0.86890    1.000
    C82      C        0.32890    0.05150    0.79880    1.000
    H65      H        0.34600    0.16670    0.78750    1.000
    C83      C        0.25300    0.96190    0.76605    1.000
    C84      C        0.22840    0.78930    0.78350    1.000
    H66      H        0.17620    0.72810    0.76260    1.000
    C85      C        0.28070    0.71040    0.83100    1.000
    H67      H        0.26540    0.59250    0.84120    1.000
    C86      C        0.13590    0.20990    0.73961    1.000
    H68      H        0.11010    0.15170    0.76740    1.000
    H69      H        0.17630    0.30900    0.75660    1.000
    H70      H        0.08690    0.25910    0.71020    1.000
    C87      C        0.19120    0.06560    0.71498    1.000
    C88      C        0.12150    0.94130    0.67580    1.000
    H71      H        0.15370    0.84940    0.65970    1.000
    H72      H        0.08310    0.88090    0.69660    1.000
    H73      H        0.08350    0.01520    0.64650    1.000
    C89      C        0.25080    0.15440    0.67897    1.000
    C90      C        0.31840    0.04660    0.66528    1.000
    H74      H        0.33010    0.92800    0.68040    1.000
    C91      C        0.36900    0.11370    0.62900    1.000
    H75      H        0.41210    0.03610    0.61890    1.000
    C92      C        0.35750    0.29250    0.60736    1.000
    C93      C        0.28820    0.40270    0.62100    1.000
    H76      H        0.27680    0.52190    0.60630    1.000
    C94      C        0.23600    0.33250    0.65710    1.000
    H77      H        0.19100    0.40680    0.66640    1.000
    C95      C        0.41210    0.36420    0.56815    1.000
    C96      C        0.70700    0.96540    0.01840    1.000
    H78      H        0.67060    0.02980    0.98810    1.000
    C97      C        0.75090    0.77470    0.08650    1.000
    H79      H        0.75150    0.67950    0.11210    1.000
    C98      C        0.81920    0.89810    0.08830    1.000
    H80      H        0.87550    0.90130    0.11500    1.000
    C99      C        0.85160    0.15760    0.03228    1.000
    C100     C        0.89680    0.28120    0.07330    1.000
    H81      H        0.88980    0.27160    0.10970    1.000
    C101     C        0.95260    0.41990    0.05960    1.000
    H82      H        0.98130    0.50040    0.08820    1.000
    C102     C        0.96460    0.43260    0.00580    1.000
    C103     C        0.91930    0.30890    0.96490    1.000
    H83      H        0.92470    0.31250    0.92800    1.000
    C104     C        0.86300    0.17050    0.97840    1.000
    H84      H        0.83310    0.08680    0.95100    1.000
    Co4      Co       0.56078    0.66206    0.01174    1.000
    N7       N        0.67950    0.81300    0.04005    1.000
    N8       N        0.79260    0.01590    0.04501    1.000
    O13      O        0.48400    0.79650    0.94455    1.000
    O14      O        0.38840    0.55480    0.92984    1.000
    O15      O        0.47579    0.26880    0.56100    1.000
    O16      O        0.38350    0.51760    0.54411    1.000
