# CIF file generated by openbabel 3.1.0, see https://openbabel.org
data_I
_chemical_name_common 'image0'
_cell_length_a 12.0014
_cell_length_b 14.686
_cell_length_c 21.176
_cell_angle_alpha 81.093
_cell_angle_beta 83.08
_cell_angle_gamma 76.571
_space_group_name_H-M_alt 'P 1'
_space_group_name_Hall 'P 1'
loop_
    _symmetry_equiv_pos_as_xyz
    x,y,z
loop_
    _atom_site_label
    _atom_site_type_symbol
    _atom_site_fract_x
    _atom_site_fract_y
    _atom_site_fract_z
    _atom_site_occupancy
    Cd1      Cd       0.00986    0.37902    0.12832    1.000
    Mo1      Mo       0.05147    0.01909    0.17163    1.000
    Mo2      Mo       0.80525    0.85104    0.95142    1.000
    Mo3      Mo       0.91929    0.75503    0.04553    1.000
    Mo4      Mo       0.20848    0.76408    0.05561    1.000
    Mo5      Mo       0.31281    0.86159    0.96360    1.000
    Mo6      Mo       0.83656    0.01124    0.16885    1.000
    Mo7      Mo       0.80225    0.47974    0.41187    1.000
    Mo8      Mo       0.56770    0.52111    0.31719    1.000
    Mo9      Mo       0.38269    0.64771    0.34343    1.000
    Mo10     Mo       0.36503    0.77069    0.47367    1.000
    Mo11     Mo       0.53904    0.73857    0.54229    1.000
    Mo12     Mo       0.78999    0.56863    0.51033    1.000
    Mg1      Mg       0.26170    0.07630    0.34020    1.000
    Cl1      Cl       0.83400    0.90490    0.21080    1.000
    Cl2      Cl       0.10250    0.91420    0.21340    1.000
    N1       N        0.41480    0.03800    0.37860    1.000
    H1       H        0.40930    0.98470    0.40500    1.000
    H2       H        0.40960    0.08200    0.40470    1.000
    N2       N        0.71140    0.92520    0.39830    1.000
    H3       H        0.76470    0.94710    0.37130    1.000
    H4       H        0.73940    0.90270    0.43610    1.000
    H5       H        0.69140    0.87910    0.38250    1.000
    O1       O        0.02210    0.15460    0.10790    1.000
    O2       O        0.91220    0.24990    0.01810    1.000
    O3       O        0.81460    0.15240    0.10450    1.000
    O4       O        0.87010    0.29720    0.13050    1.000
    O5       O        0.13290    0.09450    0.22040    1.000
    O6       O        0.24560    0.17730    0.13060    1.000
    O7       O        0.10150    0.27340    0.20340    1.000
    O8       O        0.28260    0.17230    0.24460    1.000
    O9       O        0.00270    0.61730    0.06680    1.000
    O10      O        0.20650    0.62210    0.07940    1.000
    O11      O        0.13890    0.47100    0.10840    1.000
    O12      O        0.06730    0.60250    0.17820    1.000
    O13      O        0.42260    0.82790    0.88590    1.000
    O14      O        0.31460    0.91800    0.79070    1.000
    O15      O        0.45450    0.76290    0.78100    1.000
    O16      O        0.52250    0.91030    0.79160    1.000
    H6       H        0.58620    0.87520    0.78000    1.000
    O17      O        0.19590    0.01600    0.10230    1.000
    H7       H        0.19560    0.97630    0.07710    1.000
    O18      O        0.87120    0.71580    0.97030    1.000
    O19      O        0.03870    0.78680    0.09860    1.000
    H8       H        0.01730    0.84440    0.10460    1.000
    O20      O        0.32820    0.72670    0.98890    1.000
    O21      O        0.26270    0.99450    0.90550    1.000
    H9       H        0.22430    0.03460    0.92920    1.000
    O22      O        0.91130    0.07460    0.22020    1.000
    O23      O        0.89070    0.88990    0.01180    1.000
    O24      O        0.16890    0.89740    0.01710    1.000
    O25      O        0.97190    0.98090    0.10690    1.000
    O26      O        0.67000    0.60090    0.36430    1.000
    O27      O        0.49200    0.71910    0.39060    1.000
    O28      O        0.65800    0.69040    0.45780    1.000
    O29      O        0.67300    0.77480    0.34470    1.000
    O30      O        0.87630    0.49630    0.31830    1.000
    O31      O        0.70840    0.51720    0.25140    1.000
    O32      O        0.90700    0.43570    0.21400    1.000
    O33      O        0.85460    0.61160    0.21730    1.000
    H10      H        0.92510    0.60850    0.20440    1.000
    O34      O        0.32070    0.78600    0.30600    1.000
    O35      O        0.31440    0.87520    0.40030    1.000
    O36      O        0.27920    0.96040    0.29420    1.000
    O37      O        0.13030    0.87230    0.35490    1.000
    H11      H        0.10580    0.90630    0.38490    1.000
    O38      O        0.66840    0.80880    0.54720    1.000
    O39      O        0.84670    0.68160    0.52640    1.000
    O40      O        0.85130    0.85010    0.49470    1.000
    O41      O        0.16350    0.21390    0.38840    1.000
    O42      O        0.46490    0.53520    0.39570    1.000
    O43      O        0.44950    0.65330    0.52020    1.000
    O44      O        0.68370    0.42030    0.37250    1.000
    H12      H        0.64600    0.39240    0.40300    1.000
    O45      O        0.50390    0.64530    0.27310    1.000
    O46      O        0.29120    0.68670    0.42790    1.000
    H13      H        0.28520    0.63700    0.45340    1.000
    O47      O        0.47480    0.84570    0.48170    1.000
    O48      O        0.65490    0.61630    0.57830    1.000
    H14      H        0.61850    0.57270    0.59110    1.000
    O49      O        0.87530    0.57780    0.42740    1.000
    H15      H        0.94780    0.56110    0.42820    1.000
    O50      O        0.68880    0.49380    0.48620    1.000
    P1       P        0.90224    0.21631    0.09088    1.000
    P2       P        0.18840    0.18099    0.19937    1.000
    P3       P        0.42756    0.85262    0.81240    1.000
    P4       P        0.10445    0.57700    0.11082    1.000
    P5       P        0.62495    0.69923    0.38813    1.000
    P6       P        0.83717    0.51234    0.25012    1.000
    P7       P        0.25533    0.87075    0.33985    1.000
    P8       P        0.80208    0.78197    0.54565    1.000
    C1       C        0.53550    0.02070    0.35440    1.000
    H16      H        0.55140    0.96910    0.32870    1.000
    H17      H        0.55000    0.07650    0.32650    1.000
    C2       C        0.61650    0.99690    0.40630    1.000
    H18      H        0.57370    0.98010    0.44660    1.000
    H19      H        0.64280    0.05330    0.41000    1.000
    Cd2      Cd       0.99014    0.62098    0.87168    1.000
    Mo13     Mo       0.94853    0.98091    0.82837    1.000
    Mo14     Mo       0.19475    0.14896    0.04858    1.000
    Mo15     Mo       0.08071    0.24497    0.95447    1.000
    Mo16     Mo       0.79152    0.23592    0.94439    1.000
    Mo17     Mo       0.68719    0.13841    0.03640    1.000
    Mo18     Mo       0.16344    0.98876    0.83115    1.000
    Mo19     Mo       0.19775    0.52026    0.58813    1.000
    Mo20     Mo       0.43230    0.47889    0.68281    1.000
    Mo21     Mo       0.61731    0.35229    0.65657    1.000
    Mo22     Mo       0.63497    0.22931    0.52633    1.000
    Mo23     Mo       0.46096    0.26143    0.45771    1.000
    Mo24     Mo       0.21001    0.43137    0.48967    1.000
    Mg2      Mg       0.73830    0.92370    0.65980    1.000
    Cl3      Cl       0.16600    0.09510    0.78920    1.000
    Cl4      Cl       0.89750    0.08580    0.78660    1.000
    N3       N        0.58520    0.96200    0.62140    1.000
    H20      H        0.59070    0.01530    0.59500    1.000
    H21      H        0.59040    0.91800    0.59530    1.000
    N4       N        0.28860    0.07480    0.60170    1.000
    H22      H        0.23530    0.05290    0.62870    1.000
    H23      H        0.26060    0.09730    0.56390    1.000
    H24      H        0.30860    0.12090    0.61750    1.000
    O51      O        0.97790    0.84540    0.89210    1.000
    O52      O        0.08780    0.75010    0.98190    1.000
    O53      O        0.18540    0.84760    0.89550    1.000
    O54      O        0.12990    0.70280    0.86950    1.000
    O55      O        0.86710    0.90550    0.77960    1.000
    O56      O        0.75440    0.82270    0.86940    1.000
    O57      O        0.89850    0.72660    0.79660    1.000
    O58      O        0.71740    0.82770    0.75540    1.000
    O59      O        0.99730    0.38270    0.93320    1.000
    O60      O        0.79350    0.37790    0.92060    1.000
    O61      O        0.86110    0.52900    0.89160    1.000
    O62      O        0.93270    0.39750    0.82180    1.000
    O63      O        0.57740    0.17210    0.11410    1.000
    O64      O        0.68540    0.08200    0.20930    1.000
    O65      O        0.54550    0.23710    0.21900    1.000
    O66      O        0.47750    0.08970    0.20840    1.000
    H25      H        0.41380    0.12480    0.22000    1.000
    O67      O        0.80410    0.98400    0.89770    1.000
    H26      H        0.80440    0.02370    0.92290    1.000
    O68      O        0.12880    0.28420    0.02970    1.000
    O69      O        0.96130    0.21320    0.90140    1.000
    H27      H        0.98270    0.15560    0.89540    1.000
    O70      O        0.67180    0.27330    0.01110    1.000
    O71      O        0.73730    0.00550    0.09450    1.000
    H28      H        0.77570    0.96540    0.07080    1.000
    O72      O        0.08870    0.92540    0.77980    1.000
    O73      O        0.10930    0.11010    0.98820    1.000
    O74      O        0.83110    0.10260    0.98290    1.000
    O75      O        0.02810    0.01910    0.89310    1.000
    O76      O        0.33000    0.39910    0.63570    1.000
    O77      O        0.50800    0.28090    0.60940    1.000
    O78      O        0.34200    0.30960    0.54220    1.000
    O79      O        0.32700    0.22520    0.65530    1.000
    O80      O        0.12370    0.50370    0.68170    1.000
    O81      O        0.29160    0.48280    0.74860    1.000
    O82      O        0.09300    0.56430    0.78600    1.000
    O83      O        0.14540    0.38840    0.78270    1.000
    H29      H        0.07490    0.39150    0.79560    1.000
    O84      O        0.67930    0.21400    0.69400    1.000
    O85      O        0.68560    0.12480    0.59970    1.000
    O86      O        0.72080    0.03960    0.70580    1.000
    O87      O        0.86970    0.12770    0.64510    1.000
    H30      H        0.89420    0.09370    0.61510    1.000
    O88      O        0.33160    0.19120    0.45280    1.000
    O89      O        0.15330    0.31840    0.47360    1.000
    O90      O        0.14870    0.14990    0.50530    1.000
    O91      O        0.83650    0.78610    0.61160    1.000
    O92      O        0.53510    0.46480    0.60430    1.000
    O93      O        0.55050    0.34670    0.47980    1.000
    O94      O        0.31630    0.57970    0.62750    1.000
    H31      H        0.35400    0.60760    0.59700    1.000
    O95      O        0.49610    0.35470    0.72690    1.000
    O96      O        0.70880    0.31330    0.57210    1.000
    H32      H        0.71480    0.36300    0.54660    1.000
    O97      O        0.52520    0.15430    0.51830    1.000
    O98      O        0.34510    0.38370    0.42170    1.000
    H33      H        0.38150    0.42730    0.40890    1.000
    O99      O        0.12470    0.42220    0.57260    1.000
    H34      H        0.05220    0.43890    0.57180    1.000
    O100     O        0.31120    0.50620    0.51380    1.000
    P9       P        0.09776    0.78369    0.90912    1.000
    P10      P        0.81160    0.81901    0.80063    1.000
    P11      P        0.57244    0.14738    0.18760    1.000
    P12      P        0.89555    0.42300    0.88918    1.000
    P13      P        0.37505    0.30077    0.61187    1.000
    P14      P        0.16283    0.48766    0.74988    1.000
    P15      P        0.74467    0.12925    0.66015    1.000
    P16      P        0.19792    0.21803    0.45435    1.000
    C3       C        0.46450    0.97930    0.64560    1.000
    H35      H        0.44860    0.03090    0.67130    1.000
    H36      H        0.45000    0.92350    0.67350    1.000
    C4       C        0.38350    0.00310    0.59370    1.000
    H37      H        0.42630    0.01990    0.55340    1.000
    H38      H        0.35720    0.94670    0.59000    1.000
    Cd3      Cd       0.00000    0.00000    0.00000    1.000
    Cd4      Cd       0.50000    0.50000    0.50000    1.000
