# CIF file generated by openbabel 3.1.0, see https://openbabel.org
data_I
_chemical_name_common 'image0'
_cell_length_a 29.875
_cell_length_b 29.875
_cell_length_c 18.072
_cell_angle_alpha 90
_cell_angle_beta 90
_cell_angle_gamma 120
_space_group_name_H-M_alt 'P 1'
_space_group_name_Hall 'P 1'
loop_
    _symmetry_equiv_pos_as_xyz
    x,y,z
loop_
    _atom_site_label
    _atom_site_type_symbol
    _atom_site_fract_x
    _atom_site_fract_y
    _atom_site_fract_z
    _atom_site_occupancy
    Zn1      Zn       0.62518    0.85376    0.51930    1.000
    N1       N        0.63542    0.89378    0.42017    1.000
    N2       N        0.59882    0.79276    0.44470    1.000
    N3       N        0.58157    0.76896    0.32818    1.000
    O1       O        0.47706    0.49205    0.24302    1.000
    O2       O        0.44807    0.52351    0.15478    1.000
    O3       O        0.58201    0.63467    0.75180    1.000
    O4       O        0.49762    0.59452    0.73537    1.000
    C1       C        0.65053    0.94400    0.41200    1.000
    H1       H        0.66040    0.96540    0.45470    1.000
    C2       C        0.65230    0.96584    0.34340    1.000
    H2       H        0.66240    0.00140    0.33950    1.000
    C3       C        0.63910    0.93527    0.28110    1.000
    H3       H        0.64070    0.94960    0.23360    1.000
    C4       C        0.62350    0.88319    0.28850    1.000
    H4       H        0.61460    0.86150    0.24630    1.000
    C5       C        0.62130    0.86357    0.35866    1.000
    C6       C        0.60216    0.80939    0.37534    1.000
    C7       C        0.57513    0.73984    0.44186    1.000
    C8       C        0.56385    0.72382    0.36859    1.000
    C9       C        0.53920    0.67328    0.33108    1.000
    C10      C        0.51499    0.66711    0.26240    1.000
    H5       H        0.51440    0.69570    0.24040    1.000
    C11      C        0.49214    0.62034    0.22643    1.000
    H6       H        0.47580    0.61700    0.18000    1.000
    C12      C        0.49246    0.57750    0.25701    1.000
    C13      C        0.51682    0.58335    0.32566    1.000
    H7       H        0.51780    0.55480    0.34720    1.000
    C14      C        0.53953    0.63048    0.36239    1.000
    H8       H        0.55540    0.63380    0.40910    1.000
    C15      C        0.46987    0.52726    0.21442    1.000
    C16      C        0.56554    0.71040    0.51134    1.000
    C17      C        0.60560    0.72747    0.56327    1.000
    H9       H        0.63820    0.75690    0.55270    1.000
    C18      C        0.59788    0.70157    0.63019    1.000
    H10      H        0.62520    0.71330    0.66510    1.000
    C19      C        0.55002    0.65839    0.64607    1.000
    C20      C        0.50966    0.64214    0.59550    1.000
    H11      H        0.47660    0.61360    0.60700    1.000
    C21      C        0.51776    0.66776    0.52790    1.000
    H12      H        0.49040    0.65590    0.49300    1.000
    C22      C        0.54334    0.62818    0.71640    1.000
    H13      H        0.58090    0.77040    0.28700    1.000
    Zn2      Zn       0.29185    0.18709    0.85263    1.000
    N4       N        0.30209    0.22711    0.75350    1.000
    N5       N        0.26549    0.12609    0.77803    1.000
    N6       N        0.24824    0.10229    0.66151    1.000
    O5       O        0.14373    0.82538    0.57635    1.000
    O6       O        0.11474    0.85684    0.48811    1.000
    O7       O        0.24868    0.96800    0.08513    1.000
    O8       O        0.16429    0.92785    0.06870    1.000
    C23      C        0.31720    0.27733    0.74533    1.000
    H14      H        0.32707    0.29873    0.78803    1.000
    C24      C        0.31897    0.29917    0.67673    1.000
    H15      H        0.32907    0.33473    0.67283    1.000
    C25      C        0.30577    0.26860    0.61443    1.000
    H16      H        0.30737    0.28293    0.56693    1.000
    C26      C        0.29017    0.21652    0.62183    1.000
    H17      H        0.28127    0.19483    0.57963    1.000
    C27      C        0.28797    0.19690    0.69199    1.000
    C28      C        0.26883    0.14272    0.70867    1.000
    C29      C        0.24180    0.07317    0.77519    1.000
    C30      C        0.23052    0.05715    0.70192    1.000
    C31      C        0.20587    0.00661    0.66441    1.000
    C32      C        0.18166    0.00044    0.59573    1.000
    H18      H        0.18107    0.02903    0.57373    1.000
    C33      C        0.15881    0.95367    0.55976    1.000
    H19      H        0.14247    0.95033    0.51333    1.000
    C34      C        0.15913    0.91083    0.59034    1.000
    C35      C        0.18349    0.91668    0.65899    1.000
    H20      H        0.18447    0.88813    0.68053    1.000
    C36      C        0.20620    0.96381    0.69572    1.000
    H21      H        0.22207    0.96713    0.74243    1.000
    C37      C        0.13654    0.86059    0.54775    1.000
    C38      C        0.23221    0.04373    0.84467    1.000
    C39      C        0.27227    0.06080    0.89660    1.000
    H22      H        0.30487    0.09023    0.88603    1.000
    C40      C        0.26455    0.03490    0.96352    1.000
    H23      H        0.29187    0.04663    0.99843    1.000
    C41      C        0.21669    0.99172    0.97940    1.000
    C42      C        0.17633    0.97547    0.92883    1.000
    H24      H        0.14327    0.94693    0.94033    1.000
    C43      C        0.18443    0.00109    0.86123    1.000
    H25      H        0.15707    0.98923    0.82633    1.000
    C44      C        0.21001    0.96151    0.04973    1.000
    H26      H        0.24757    0.10373    0.62033    1.000
    Zn3      Zn       0.95851    0.52043    0.18597    1.000
    N7       N        0.96875    0.56045    0.08684    1.000
    N8       N        0.93215    0.45943    0.11137    1.000
    N9       N        0.91490    0.43563    0.99485    1.000
    O9       O        0.81039    0.15872    0.90969    1.000
    O10      O        0.78140    0.19018    0.82145    1.000
    O11      O        0.91534    0.30134    0.41847    1.000
    O12      O        0.83095    0.26119    0.40204    1.000
    C45      C        0.98386    0.61067    0.07867    1.000
    H27      H        0.99373    0.63207    0.12137    1.000
    C46      C        0.98563    0.63251    0.01007    1.000
    H28      H        0.99573    0.66807    0.00617    1.000
    C47      C        0.97243    0.60194    0.94777    1.000
    H29      H        0.97403    0.61627    0.90027    1.000
    C48      C        0.95683    0.54986    0.95517    1.000
    H30      H        0.94793    0.52817    0.91297    1.000
    C49      C        0.95463    0.53024    0.02533    1.000
    C50      C        0.93549    0.47606    0.04201    1.000
    C51      C        0.90846    0.40651    0.10853    1.000
    C52      C        0.89718    0.39049    0.03526    1.000
    C53      C        0.87253    0.33995    0.99775    1.000
    C54      C        0.84832    0.33378    0.92907    1.000
    H31      H        0.84773    0.36237    0.90707    1.000
    C55      C        0.82547    0.28701    0.89310    1.000
    H32      H        0.80913    0.28367    0.84667    1.000
    C56      C        0.82579    0.24417    0.92368    1.000
    C57      C        0.85015    0.25002    0.99233    1.000
    H33      H        0.85113    0.22147    0.01387    1.000
    C58      C        0.87286    0.29715    0.02906    1.000
    H34      H        0.88873    0.30047    0.07577    1.000
    C59      C        0.80320    0.19393    0.88109    1.000
    C60      C        0.89887    0.37707    0.17801    1.000
    C61      C        0.93893    0.39414    0.22994    1.000
    H35      H        0.97153    0.42357    0.21937    1.000
    C62      C        0.93121    0.36824    0.29686    1.000
    H36      H        0.95853    0.37997    0.33177    1.000
    C63      C        0.88335    0.32506    0.31274    1.000
    C64      C        0.84299    0.30881    0.26217    1.000
    H37      H        0.80993    0.28027    0.27367    1.000
    C65      C        0.85109    0.33443    0.19457    1.000
    H38      H        0.82373    0.32257    0.15967    1.000
    C66      C        0.87667    0.29485    0.38307    1.000
    H39      H        0.91423    0.43707    0.95367    1.000
    Zn4      Zn       0.14624    0.77142    0.51930    1.000
    N10      N        0.10622    0.74164    0.42017    1.000
    N11      N        0.20724    0.80606    0.44470    1.000
    N12      N        0.23104    0.81261    0.32818    1.000
    O13      O        0.50795    0.98501    0.24302    1.000
    O14      O        0.47649    0.92456    0.15478    1.000
    O15      O        0.36533    0.94734    0.75180    1.000
    O16      O        0.40548    0.90310    0.73537    1.000
    C67      C        0.05600    0.70653    0.41200    1.000
    H40      H        0.03460    0.69500    0.45470    1.000
    C68      C        0.03416    0.68646    0.34340    1.000
    H41      H        0.99860    0.66100    0.33950    1.000
    C69      C        0.06473    0.70383    0.28110    1.000
    H42      H        0.05040    0.69110    0.23360    1.000
    C70      C        0.11681    0.74031    0.28850    1.000
    H43      H        0.13850    0.75310    0.24630    1.000
    C71      C        0.13643    0.75773    0.35866    1.000
    C72      C        0.19061    0.79277    0.37534    1.000
    C73      C        0.26016    0.83529    0.44186    1.000
    C74      C        0.27618    0.84003    0.36859    1.000
    C75      C        0.32672    0.86592    0.33108    1.000
    C76      C        0.33289    0.84788    0.26240    1.000
    H44      H        0.30430    0.81870    0.24040    1.000
    C77      C        0.37966    0.87180    0.22643    1.000
    H45      H        0.38300    0.85880    0.18000    1.000
    C78      C        0.42250    0.91496    0.25701    1.000
    C79      C        0.41665    0.93347    0.32566    1.000
    H46      H        0.44520    0.96300    0.34720    1.000
    C80      C        0.36952    0.90905    0.36239    1.000
    H47      H        0.36620    0.92160    0.40910    1.000
    C81      C        0.47274    0.94261    0.21442    1.000
    C82      C        0.28960    0.85514    0.51134    1.000
    C83      C        0.27253    0.87813    0.56327    1.000
    H48      H        0.24310    0.88130    0.55270    1.000
    C84      C        0.29843    0.89631    0.63019    1.000
    H49      H        0.28670    0.91190    0.66510    1.000
    C85      C        0.34161    0.89163    0.64607    1.000
    C86      C        0.35786    0.86752    0.59550    1.000
    H50      H        0.38640    0.86300    0.60700    1.000
    C87      C        0.33224    0.85000    0.52790    1.000
    H51      H        0.34410    0.83450    0.49300    1.000
    C88      C        0.37182    0.91516    0.71640    1.000
    H52      H        0.22960    0.81050    0.28700    1.000
    Zn5      Zn       0.81291    0.10475    0.85263    1.000
    N13      N        0.77289    0.07497    0.75350    1.000
    N14      N        0.87391    0.13939    0.77803    1.000
    N15      N        0.89771    0.14594    0.66151    1.000
    O17      O        0.17462    0.31834    0.57635    1.000
    O18      O        0.14316    0.25789    0.48811    1.000
    O19      O        0.03200    0.28067    0.08513    1.000
    O20      O        0.07215    0.23643    0.06870    1.000
    C89      C        0.72267    0.03986    0.74533    1.000
    H53      H        0.70127    0.02833    0.78803    1.000
    C90      C        0.70083    0.01979    0.67673    1.000
    H54      H        0.66527    0.99433    0.67283    1.000
    C91      C        0.73140    0.03716    0.61443    1.000
    H55      H        0.71707    0.02443    0.56693    1.000
    C92      C        0.78348    0.07364    0.62183    1.000
    H56      H        0.80517    0.08643    0.57963    1.000
    C93      C        0.80310    0.09106    0.69199    1.000
    C94      C        0.85728    0.12610    0.70867    1.000
    C95      C        0.92683    0.16862    0.77519    1.000
    C96      C        0.94285    0.17336    0.70192    1.000
    C97      C        0.99339    0.19925    0.66441    1.000
    C98      C        0.99956    0.18121    0.59573    1.000
    H57      H        0.97097    0.15203    0.57373    1.000
    C99      C        0.04633    0.20513    0.55976    1.000
    H58      H        0.04967    0.19213    0.51333    1.000
    C100     C        0.08917    0.24829    0.59034    1.000
    C101     C        0.08332    0.26680    0.65899    1.000
    H59      H        0.11187    0.29633    0.68053    1.000
    C102     C        0.03619    0.24238    0.69572    1.000
    H60      H        0.03287    0.25493    0.74243    1.000
    C103     C        0.13941    0.27594    0.54775    1.000
    C104     C        0.95627    0.18847    0.84467    1.000
    C105     C        0.93920    0.21146    0.89660    1.000
    H61      H        0.90977    0.21463    0.88603    1.000
    C106     C        0.96510    0.22964    0.96352    1.000
    H62      H        0.95337    0.24523    0.99843    1.000
    C107     C        0.00828    0.22496    0.97940    1.000
    C108     C        0.02453    0.20085    0.92883    1.000
    H63      H        0.05307    0.19633    0.94033    1.000
    C109     C        0.99891    0.18333    0.86123    1.000
    H64      H        0.01077    0.16783    0.82633    1.000
    C110     C        0.03849    0.24849    0.04973    1.000
    H65      H        0.89627    0.14383    0.62033    1.000
    Zn6      Zn       0.47957    0.43809    0.18597    1.000
    N16      N        0.43955    0.40831    0.08684    1.000
    N17      N        0.54057    0.47273    0.11137    1.000
    N18      N        0.56437    0.47928    0.99485    1.000
    O21      O        0.84128    0.65168    0.90969    1.000
    O22      O        0.80982    0.59123    0.82145    1.000
    O23      O        0.69866    0.61401    0.41847    1.000
    O24      O        0.73881    0.56977    0.40204    1.000
    C111     C        0.38933    0.37320    0.07867    1.000
    H66      H        0.36793    0.36167    0.12137    1.000
    C112     C        0.36749    0.35313    0.01007    1.000
    H67      H        0.33193    0.32767    0.00617    1.000
    C113     C        0.39806    0.37050    0.94777    1.000
    H68      H        0.38373    0.35777    0.90027    1.000
    C114     C        0.45014    0.40698    0.95517    1.000
    H69      H        0.47183    0.41977    0.91297    1.000
    C115     C        0.46976    0.42440    0.02533    1.000
    C116     C        0.52394    0.45944    0.04201    1.000
    C117     C        0.59349    0.50196    0.10853    1.000
    C118     C        0.60951    0.50670    0.03526    1.000
    C119     C        0.66005    0.53259    0.99775    1.000
    C120     C        0.66622    0.51455    0.92907    1.000
    H70      H        0.63763    0.48537    0.90707    1.000
    C121     C        0.71299    0.53847    0.89310    1.000
    H71      H        0.71633    0.52547    0.84667    1.000
    C122     C        0.75583    0.58163    0.92368    1.000
    C123     C        0.74998    0.60014    0.99233    1.000
    H72      H        0.77853    0.62967    0.01387    1.000
    C124     C        0.70285    0.57572    0.02906    1.000
    H73      H        0.69953    0.58827    0.07577    1.000
    C125     C        0.80607    0.60928    0.88109    1.000
    C126     C        0.62293    0.52181    0.17801    1.000
    C127     C        0.60586    0.54480    0.22994    1.000
    H74      H        0.57643    0.54797    0.21937    1.000
    C128     C        0.63176    0.56298    0.29686    1.000
    H75      H        0.62003    0.57857    0.33177    1.000
    C129     C        0.67494    0.55830    0.31274    1.000
    C130     C        0.69119    0.53419    0.26217    1.000
    H76      H        0.71973    0.52967    0.27367    1.000
    C131     C        0.66557    0.51667    0.19457    1.000
    H77      H        0.67743    0.50117    0.15967    1.000
    C132     C        0.70515    0.58183    0.38307    1.000
    H78      H        0.56293    0.47717    0.95367    1.000
    Zn7      Zn       0.22858    0.37482    0.51930    1.000
    N19      N        0.25836    0.36458    0.42017    1.000
    N20      N        0.19394    0.40118    0.44470    1.000
    N21      N        0.18739    0.41843    0.32818    1.000
    O25      O        0.01499    0.52294    0.24302    1.000
    O26      O        0.07544    0.55193    0.15478    1.000
    O27      O        0.05266    0.41799    0.75180    1.000
    O28      O        0.09690    0.50238    0.73537    1.000
    C133     C        0.29347    0.34947    0.41200    1.000
    H79      H        0.30500    0.33960    0.45470    1.000
    C134     C        0.31354    0.34770    0.34340    1.000
    H80      H        0.33900    0.33760    0.33950    1.000
    C135     C        0.29617    0.36090    0.28110    1.000
    H81      H        0.30890    0.35930    0.23360    1.000
    C136     C        0.25969    0.37650    0.28850    1.000
    H82      H        0.24690    0.38540    0.24630    1.000
    C137     C        0.24227    0.37870    0.35866    1.000
    C138     C        0.20723    0.39784    0.37534    1.000
    C139     C        0.16471    0.42487    0.44186    1.000
    C140     C        0.15997    0.43615    0.36859    1.000
    C141     C        0.13408    0.46080    0.33108    1.000
    C142     C        0.15212    0.48501    0.26240    1.000
    H83      H        0.18130    0.48560    0.24040    1.000
    C143     C        0.12820    0.50786    0.22643    1.000
    H84      H        0.14120    0.52420    0.18000    1.000
    C144     C        0.08504    0.50754    0.25701    1.000
    C145     C        0.06653    0.48318    0.32566    1.000
    H85      H        0.03700    0.48220    0.34720    1.000
    C146     C        0.09095    0.46047    0.36239    1.000
    H86      H        0.07840    0.44460    0.40910    1.000
    C147     C        0.05739    0.53013    0.21442    1.000
    C148     C        0.14486    0.43446    0.51134    1.000
    C149     C        0.12187    0.39440    0.56327    1.000
    H87      H        0.11870    0.36180    0.55270    1.000
    C150     C        0.10369    0.40212    0.63019    1.000
    H88      H        0.08810    0.37480    0.66510    1.000
    C151     C        0.10837    0.44998    0.64607    1.000
    C152     C        0.13248    0.49034    0.59550    1.000
    H89      H        0.13700    0.52340    0.60700    1.000
    C153     C        0.15000    0.48224    0.52790    1.000
    H90      H        0.16550    0.50960    0.49300    1.000
    C154     C        0.08484    0.45666    0.71640    1.000
    H91      H        0.18950    0.41910    0.28700    1.000
    Zn8      Zn       0.89525    0.70815    0.85263    1.000
    N22      N        0.92503    0.69791    0.75350    1.000
    N23      N        0.86061    0.73451    0.77803    1.000
    N24      N        0.85406    0.75176    0.66151    1.000
    O29      O        0.68166    0.85627    0.57635    1.000
    O30      O        0.74211    0.88526    0.48811    1.000
    O31      O        0.71933    0.75132    0.08513    1.000
    O32      O        0.76357    0.83571    0.06870    1.000
    C155     C        0.96014    0.68280    0.74533    1.000
    H92      H        0.97167    0.67293    0.78803    1.000
    C156     C        0.98021    0.68103    0.67673    1.000
    H93      H        0.00567    0.67093    0.67283    1.000
    C157     C        0.96284    0.69423    0.61443    1.000
    H94      H        0.97557    0.69263    0.56693    1.000
    C158     C        0.92636    0.70983    0.62183    1.000
    H95      H        0.91357    0.71873    0.57963    1.000
    C159     C        0.90894    0.71203    0.69199    1.000
    C160     C        0.87390    0.73117    0.70867    1.000
    C161     C        0.83138    0.75820    0.77519    1.000
    C162     C        0.82664    0.76948    0.70192    1.000
    C163     C        0.80075    0.79413    0.66441    1.000
    C164     C        0.81879    0.81834    0.59573    1.000
    H96      H        0.84797    0.81893    0.57373    1.000
    C165     C        0.79487    0.84119    0.55976    1.000
    H97      H        0.80787    0.85753    0.51333    1.000
    C166     C        0.75171    0.84087    0.59034    1.000
    C167     C        0.73320    0.81651    0.65899    1.000
    H98      H        0.70367    0.81553    0.68053    1.000
    C168     C        0.75762    0.79380    0.69572    1.000
    H99      H        0.74507    0.77793    0.74243    1.000
    C169     C        0.72406    0.86346    0.54775    1.000
    C170     C        0.81153    0.76779    0.84467    1.000
    C171     C        0.78854    0.72773    0.89660    1.000
    H100     H        0.78537    0.69513    0.88603    1.000
    C172     C        0.77036    0.73545    0.96352    1.000
    H101     H        0.75477    0.70813    0.99843    1.000
    C173     C        0.77504    0.78331    0.97940    1.000
    C174     C        0.79915    0.82367    0.92883    1.000
    H102     H        0.80367    0.85673    0.94033    1.000
    C175     C        0.81667    0.81557    0.86123    1.000
    H103     H        0.83217    0.84293    0.82633    1.000
    C176     C        0.75151    0.78999    0.04973    1.000
    H104     H        0.85617    0.75243    0.62033    1.000
    Zn9      Zn       0.56191    0.04149    0.18597    1.000
    N25      N        0.59169    0.03125    0.08684    1.000
    N26      N        0.52727    0.06785    0.11137    1.000
    N27      N        0.52072    0.08510    0.99485    1.000
    O33      O        0.34832    0.18961    0.90969    1.000
    O34      O        0.40877    0.21860    0.82145    1.000
    O35      O        0.38599    0.08466    0.41847    1.000
    O36      O        0.43023    0.16905    0.40204    1.000
    C177     C        0.62680    0.01614    0.07867    1.000
    H105     H        0.63833    0.00627    0.12137    1.000
    C178     C        0.64687    0.01437    0.01007    1.000
    H106     H        0.67233    0.00427    0.00617    1.000
    C179     C        0.62950    0.02757    0.94777    1.000
    H107     H        0.64223    0.02597    0.90027    1.000
    C180     C        0.59302    0.04317    0.95517    1.000
    H108     H        0.58023    0.05207    0.91297    1.000
    C181     C        0.57560    0.04537    0.02533    1.000
    C182     C        0.54056    0.06451    0.04201    1.000
    C183     C        0.49804    0.09154    0.10853    1.000
    C184     C        0.49330    0.10282    0.03526    1.000
    C185     C        0.46741    0.12747    0.99775    1.000
    C186     C        0.48545    0.15168    0.92907    1.000
    H109     H        0.51463    0.15227    0.90707    1.000
    C187     C        0.46153    0.17453    0.89310    1.000
    H110     H        0.47453    0.19087    0.84667    1.000
    C188     C        0.41837    0.17421    0.92368    1.000
    C189     C        0.39986    0.14985    0.99233    1.000
    H111     H        0.37033    0.14887    0.01387    1.000
    C190     C        0.42428    0.12714    0.02906    1.000
    H112     H        0.41173    0.11127    0.07577    1.000
    C191     C        0.39072    0.19680    0.88109    1.000
    C192     C        0.47819    0.10113    0.17801    1.000
    C193     C        0.45520    0.06107    0.22994    1.000
    H113     H        0.45203    0.02847    0.21937    1.000
    C194     C        0.43702    0.06879    0.29686    1.000
    H114     H        0.42143    0.04147    0.33177    1.000
    C195     C        0.44170    0.11665    0.31274    1.000
    C196     C        0.46581    0.15701    0.26217    1.000
    H115     H        0.47033    0.19007    0.27367    1.000
    C197     C        0.48333    0.14891    0.19457    1.000
    H116     H        0.49883    0.17627    0.15967    1.000
    C198     C        0.41817    0.12333    0.38307    1.000
    H117     H        0.52283    0.08577    0.95367    1.000
    Zn10     Zn       0.37482    0.14624    0.48070    1.000
    N28      N        0.36458    0.10622    0.57983    1.000
    N29      N        0.40118    0.20724    0.55530    1.000
    N30      N        0.41843    0.23104    0.67182    1.000
    O37      O        0.52294    0.50795    0.75698    1.000
    O38      O        0.55193    0.47649    0.84522    1.000
    O39      O        0.41799    0.36533    0.24820    1.000
    O40      O        0.50238    0.40548    0.26463    1.000
    C199     C        0.34947    0.05600    0.58800    1.000
    H118     H        0.33960    0.03460    0.54530    1.000
    C200     C        0.34770    0.03416    0.65660    1.000
    H119     H        0.33760    0.99860    0.66050    1.000
    C201     C        0.36090    0.06473    0.71890    1.000
    H120     H        0.35930    0.05040    0.76640    1.000
    C202     C        0.37650    0.11681    0.71150    1.000
    H121     H        0.38540    0.13850    0.75370    1.000
    C203     C        0.37870    0.13643    0.64134    1.000
    C204     C        0.39784    0.19061    0.62466    1.000
    C205     C        0.42487    0.26016    0.55814    1.000
    C206     C        0.43615    0.27618    0.63141    1.000
    C207     C        0.46080    0.32672    0.66892    1.000
    C208     C        0.48501    0.33289    0.73760    1.000
    H122     H        0.48560    0.30430    0.75960    1.000
    C209     C        0.50786    0.37966    0.77357    1.000
    H123     H        0.52420    0.38300    0.82000    1.000
    C210     C        0.50754    0.42250    0.74299    1.000
    C211     C        0.48318    0.41665    0.67434    1.000
    H124     H        0.48220    0.44520    0.65280    1.000
    C212     C        0.46047    0.36952    0.63761    1.000
    H125     H        0.44460    0.36620    0.59090    1.000
    C213     C        0.53013    0.47274    0.78558    1.000
    C214     C        0.43446    0.28960    0.48866    1.000
    C215     C        0.39440    0.27253    0.43673    1.000
    H126     H        0.36180    0.24310    0.44730    1.000
    C216     C        0.40212    0.29843    0.36981    1.000
    H127     H        0.37480    0.28670    0.33490    1.000
    C217     C        0.44998    0.34161    0.35393    1.000
    C218     C        0.49034    0.35786    0.40450    1.000
    H128     H        0.52340    0.38640    0.39300    1.000
    C219     C        0.48224    0.33224    0.47210    1.000
    H129     H        0.50960    0.34410    0.50700    1.000
    C220     C        0.45666    0.37182    0.28360    1.000
    H130     H        0.41910    0.22960    0.71300    1.000
    Zn11     Zn       0.04149    0.47957    0.81403    1.000
    N31      N        0.03125    0.43955    0.91316    1.000
    N32      N        0.06785    0.54057    0.88863    1.000
    N33      N        0.08510    0.56437    0.00515    1.000
    O41      O        0.18961    0.84128    0.09031    1.000
    O42      O        0.21860    0.80982    0.17855    1.000
    O43      O        0.08466    0.69866    0.58153    1.000
    O44      O        0.16905    0.73881    0.59796    1.000
    C221     C        0.01614    0.38933    0.92133    1.000
    H131     H        0.00627    0.36793    0.87863    1.000
    C222     C        0.01437    0.36749    0.98993    1.000
    H132     H        0.00427    0.33193    0.99383    1.000
    C223     C        0.02757    0.39806    0.05223    1.000
    H133     H        0.02597    0.38373    0.09973    1.000
    C224     C        0.04317    0.45014    0.04483    1.000
    H134     H        0.05207    0.47183    0.08703    1.000
    C225     C        0.04537    0.46976    0.97467    1.000
    C226     C        0.06451    0.52394    0.95799    1.000
    C227     C        0.09154    0.59349    0.89147    1.000
    C228     C        0.10282    0.60951    0.96474    1.000
    C229     C        0.12747    0.66005    0.00225    1.000
    C230     C        0.15168    0.66622    0.07093    1.000
    H135     H        0.15227    0.63763    0.09293    1.000
    C231     C        0.17453    0.71299    0.10690    1.000
    H136     H        0.19087    0.71633    0.15333    1.000
    C232     C        0.17421    0.75583    0.07632    1.000
    C233     C        0.14985    0.74998    0.00767    1.000
    H137     H        0.14887    0.77853    0.98613    1.000
    C234     C        0.12714    0.70285    0.97094    1.000
    H138     H        0.11127    0.69953    0.92423    1.000
    C235     C        0.19680    0.80607    0.11891    1.000
    C236     C        0.10113    0.62293    0.82199    1.000
    C237     C        0.06107    0.60586    0.77006    1.000
    H139     H        0.02847    0.57643    0.78063    1.000
    C238     C        0.06879    0.63176    0.70314    1.000
    H140     H        0.04147    0.62003    0.66823    1.000
    C239     C        0.11665    0.67494    0.68726    1.000
    C240     C        0.15701    0.69119    0.73783    1.000
    H141     H        0.19007    0.71973    0.72633    1.000
    C241     C        0.14891    0.66557    0.80543    1.000
    H142     H        0.17627    0.67743    0.84033    1.000
    C242     C        0.12333    0.70515    0.61693    1.000
    H143     H        0.08577    0.56293    0.04633    1.000
    Zn12     Zn       0.70815    0.81291    0.14737    1.000
    N34      N        0.69791    0.77289    0.24650    1.000
    N35      N        0.73451    0.87391    0.22197    1.000
    N36      N        0.75176    0.89771    0.33849    1.000
    O45      O        0.85627    0.17462    0.42365    1.000
    O46      O        0.88526    0.14316    0.51189    1.000
    O47      O        0.75132    0.03200    0.91487    1.000
    O48      O        0.83571    0.07215    0.93130    1.000
    C243     C        0.68280    0.72267    0.25467    1.000
    H144     H        0.67293    0.70127    0.21197    1.000
    C244     C        0.68103    0.70083    0.32327    1.000
    H145     H        0.67093    0.66527    0.32717    1.000
    C245     C        0.69423    0.73140    0.38557    1.000
    H146     H        0.69263    0.71707    0.43307    1.000
    C246     C        0.70983    0.78348    0.37817    1.000
    H147     H        0.71873    0.80517    0.42037    1.000
    C247     C        0.71203    0.80310    0.30801    1.000
    C248     C        0.73117    0.85728    0.29133    1.000
    C249     C        0.75820    0.92683    0.22481    1.000
    C250     C        0.76948    0.94285    0.29808    1.000
    C251     C        0.79413    0.99339    0.33559    1.000
    C252     C        0.81834    0.99956    0.40427    1.000
    H148     H        0.81893    0.97097    0.42627    1.000
    C253     C        0.84119    0.04633    0.44024    1.000
    H149     H        0.85753    0.04967    0.48667    1.000
    C254     C        0.84087    0.08917    0.40966    1.000
    C255     C        0.81651    0.08332    0.34101    1.000
    H150     H        0.81553    0.11187    0.31947    1.000
    C256     C        0.79380    0.03619    0.30428    1.000
    H151     H        0.77793    0.03287    0.25757    1.000
    C257     C        0.86346    0.13941    0.45225    1.000
    C258     C        0.76779    0.95627    0.15533    1.000
    C259     C        0.72773    0.93920    0.10340    1.000
    H152     H        0.69513    0.90977    0.11397    1.000
    C260     C        0.73545    0.96510    0.03648    1.000
    H153     H        0.70813    0.95337    0.00157    1.000
    C261     C        0.78331    0.00828    0.02060    1.000
    C262     C        0.82367    0.02453    0.07117    1.000
    H154     H        0.85673    0.05307    0.05967    1.000
    C263     C        0.81557    0.99891    0.13877    1.000
    H155     H        0.84293    0.01077    0.17367    1.000
    C264     C        0.78999    0.03849    0.95027    1.000
    H156     H        0.75243    0.89627    0.37967    1.000
    Zn13     Zn       0.85376    0.22858    0.48070    1.000
    N37      N        0.89378    0.25836    0.57983    1.000
    N38      N        0.79276    0.19394    0.55530    1.000
    N39      N        0.76896    0.18739    0.67182    1.000
    O49      O        0.49205    0.01499    0.75698    1.000
    O50      O        0.52351    0.07544    0.84522    1.000
    O51      O        0.63467    0.05266    0.24820    1.000
    O52      O        0.59452    0.09690    0.26463    1.000
    C265     C        0.94400    0.29347    0.58800    1.000
    H157     H        0.96540    0.30500    0.54530    1.000
    C266     C        0.96584    0.31354    0.65660    1.000
    H158     H        0.00140    0.33900    0.66050    1.000
    C267     C        0.93527    0.29617    0.71890    1.000
    H159     H        0.94960    0.30890    0.76640    1.000
    C268     C        0.88319    0.25969    0.71150    1.000
    H160     H        0.86150    0.24690    0.75370    1.000
    C269     C        0.86357    0.24227    0.64134    1.000
    C270     C        0.80939    0.20723    0.62466    1.000
    C271     C        0.73984    0.16471    0.55814    1.000
    C272     C        0.72382    0.15997    0.63141    1.000
    C273     C        0.67328    0.13408    0.66892    1.000
    C274     C        0.66711    0.15212    0.73760    1.000
    H161     H        0.69570    0.18130    0.75960    1.000
    C275     C        0.62034    0.12820    0.77357    1.000
    H162     H        0.61700    0.14120    0.82000    1.000
    C276     C        0.57750    0.08504    0.74299    1.000
    C277     C        0.58335    0.06653    0.67434    1.000
    H163     H        0.55480    0.03700    0.65280    1.000
    C278     C        0.63048    0.09095    0.63761    1.000
    H164     H        0.63380    0.07840    0.59090    1.000
    C279     C        0.52726    0.05739    0.78558    1.000
    C280     C        0.71040    0.14486    0.48866    1.000
    C281     C        0.72747    0.12187    0.43673    1.000
    H165     H        0.75690    0.11870    0.44730    1.000
    C282     C        0.70157    0.10369    0.36981    1.000
    H166     H        0.71330    0.08810    0.33490    1.000
    C283     C        0.65839    0.10837    0.35393    1.000
    C284     C        0.64214    0.13248    0.40450    1.000
    H167     H        0.61360    0.13700    0.39300    1.000
    C285     C        0.66776    0.15000    0.47210    1.000
    H168     H        0.65590    0.16550    0.50700    1.000
    C286     C        0.62818    0.08484    0.28360    1.000
    H169     H        0.77040    0.18950    0.71300    1.000
    Zn14     Zn       0.52043    0.56191    0.81403    1.000
    N40      N        0.56045    0.59169    0.91316    1.000
    N41      N        0.45943    0.52727    0.88863    1.000
    N42      N        0.43563    0.52072    0.00515    1.000
    O53      O        0.15872    0.34832    0.09031    1.000
    O54      O        0.19018    0.40877    0.17855    1.000
    O55      O        0.30134    0.38599    0.58153    1.000
    O56      O        0.26119    0.43023    0.59796    1.000
    C287     C        0.61067    0.62680    0.92133    1.000
    H170     H        0.63207    0.63833    0.87863    1.000
    C288     C        0.63251    0.64687    0.98993    1.000
    H171     H        0.66807    0.67233    0.99383    1.000
    C289     C        0.60194    0.62950    0.05223    1.000
    H172     H        0.61627    0.64223    0.09973    1.000
    C290     C        0.54986    0.59302    0.04483    1.000
    H173     H        0.52817    0.58023    0.08703    1.000
    C291     C        0.53024    0.57560    0.97467    1.000
    C292     C        0.47606    0.54056    0.95799    1.000
    C293     C        0.40651    0.49804    0.89147    1.000
    C294     C        0.39049    0.49330    0.96474    1.000
    C295     C        0.33995    0.46741    0.00225    1.000
    C296     C        0.33378    0.48545    0.07093    1.000
    H174     H        0.36237    0.51463    0.09293    1.000
    C297     C        0.28701    0.46153    0.10690    1.000
    H175     H        0.28367    0.47453    0.15333    1.000
    C298     C        0.24417    0.41837    0.07632    1.000
    C299     C        0.25002    0.39986    0.00767    1.000
    H176     H        0.22147    0.37033    0.98613    1.000
    C300     C        0.29715    0.42428    0.97094    1.000
    H177     H        0.30047    0.41173    0.92423    1.000
    C301     C        0.19393    0.39072    0.11891    1.000
    C302     C        0.37707    0.47819    0.82199    1.000
    C303     C        0.39414    0.45520    0.77006    1.000
    H178     H        0.42357    0.45203    0.78063    1.000
    C304     C        0.36824    0.43702    0.70314    1.000
    H179     H        0.37997    0.42143    0.66823    1.000
    C305     C        0.32506    0.44170    0.68726    1.000
    C306     C        0.30881    0.46581    0.73783    1.000
    H180     H        0.28027    0.47033    0.72633    1.000
    C307     C        0.33443    0.48333    0.80543    1.000
    H181     H        0.32257    0.49883    0.84033    1.000
    C308     C        0.29485    0.41817    0.61693    1.000
    H182     H        0.43707    0.52283    0.04633    1.000
    Zn15     Zn       0.18709    0.89525    0.14737    1.000
    N43      N        0.22711    0.92503    0.24650    1.000
    N44      N        0.12609    0.86061    0.22197    1.000
    N45      N        0.10229    0.85406    0.33849    1.000
    O57      O        0.82538    0.68166    0.42365    1.000
    O58      O        0.85684    0.74211    0.51189    1.000
    O59      O        0.96800    0.71933    0.91487    1.000
    O60      O        0.92785    0.76357    0.93130    1.000
    C309     C        0.27733    0.96014    0.25467    1.000
    H183     H        0.29873    0.97167    0.21197    1.000
    C310     C        0.29917    0.98021    0.32327    1.000
    H184     H        0.33473    0.00567    0.32717    1.000
    C311     C        0.26860    0.96284    0.38557    1.000
    H185     H        0.28293    0.97557    0.43307    1.000
    C312     C        0.21652    0.92636    0.37817    1.000
    H186     H        0.19483    0.91357    0.42037    1.000
    C313     C        0.19690    0.90894    0.30801    1.000
    C314     C        0.14272    0.87390    0.29133    1.000
    C315     C        0.07317    0.83138    0.22481    1.000
    C316     C        0.05715    0.82664    0.29808    1.000
    C317     C        0.00661    0.80075    0.33559    1.000
    C318     C        0.00044    0.81879    0.40427    1.000
    H187     H        0.02903    0.84797    0.42627    1.000
    C319     C        0.95367    0.79487    0.44024    1.000
    H188     H        0.95033    0.80787    0.48667    1.000
    C320     C        0.91083    0.75171    0.40966    1.000
    C321     C        0.91668    0.73320    0.34101    1.000
    H189     H        0.88813    0.70367    0.31947    1.000
    C322     C        0.96381    0.75762    0.30428    1.000
    H190     H        0.96713    0.74507    0.25757    1.000
    C323     C        0.86059    0.72406    0.45225    1.000
    C324     C        0.04373    0.81153    0.15533    1.000
    C325     C        0.06080    0.78854    0.10340    1.000
    H191     H        0.09023    0.78537    0.11397    1.000
    C326     C        0.03490    0.77036    0.03648    1.000
    H192     H        0.04663    0.75477    0.00157    1.000
    C327     C        0.99172    0.77504    0.02060    1.000
    C328     C        0.97547    0.79915    0.07117    1.000
    H193     H        0.94693    0.80367    0.05967    1.000
    C329     C        0.00109    0.81667    0.13877    1.000
    H194     H        0.98923    0.83217    0.17367    1.000
    C330     C        0.96151    0.75151    0.95027    1.000
    H195     H        0.10373    0.85617    0.37967    1.000
    Zn16     Zn       0.77142    0.62518    0.48070    1.000
    N46      N        0.74164    0.63542    0.57983    1.000
    N47      N        0.80606    0.59882    0.55530    1.000
    N48      N        0.81261    0.58157    0.67182    1.000
    O61      O        0.98501    0.47706    0.75698    1.000
    O62      O        0.92456    0.44807    0.84522    1.000
    O63      O        0.94734    0.58201    0.24820    1.000
    O64      O        0.90310    0.49762    0.26463    1.000
    C331     C        0.70653    0.65053    0.58800    1.000
    H196     H        0.69500    0.66040    0.54530    1.000
    C332     C        0.68646    0.65230    0.65660    1.000
    H197     H        0.66100    0.66240    0.66050    1.000
    C333     C        0.70383    0.63910    0.71890    1.000
    H198     H        0.69110    0.64070    0.76640    1.000
    C334     C        0.74031    0.62350    0.71150    1.000
    H199     H        0.75310    0.61460    0.75370    1.000
    C335     C        0.75773    0.62130    0.64134    1.000
    C336     C        0.79277    0.60216    0.62466    1.000
    C337     C        0.83529    0.57513    0.55814    1.000
    C338     C        0.84003    0.56385    0.63141    1.000
    C339     C        0.86592    0.53920    0.66892    1.000
    C340     C        0.84788    0.51499    0.73760    1.000
    H200     H        0.81870    0.51440    0.75960    1.000
    C341     C        0.87180    0.49214    0.77357    1.000
    H201     H        0.85880    0.47580    0.82000    1.000
    C342     C        0.91496    0.49246    0.74299    1.000
    C343     C        0.93347    0.51682    0.67434    1.000
    H202     H        0.96300    0.51780    0.65280    1.000
    C344     C        0.90905    0.53953    0.63761    1.000
    H203     H        0.92160    0.55540    0.59090    1.000
    C345     C        0.94261    0.46987    0.78558    1.000
    C346     C        0.85514    0.56554    0.48866    1.000
    C347     C        0.87813    0.60560    0.43673    1.000
    H204     H        0.88130    0.63820    0.44730    1.000
    C348     C        0.89631    0.59788    0.36981    1.000
    H205     H        0.91190    0.62520    0.33490    1.000
    C349     C        0.89163    0.55002    0.35393    1.000
    C350     C        0.86752    0.50966    0.40450    1.000
    H206     H        0.86300    0.47660    0.39300    1.000
    C351     C        0.85000    0.51776    0.47210    1.000
    H207     H        0.83450    0.49040    0.50700    1.000
    C352     C        0.91516    0.54334    0.28360    1.000
    H208     H        0.81050    0.58090    0.71300    1.000
    Zn17     Zn       0.43809    0.95851    0.81403    1.000
    N49      N        0.40831    0.96875    0.91316    1.000
    N50      N        0.47273    0.93215    0.88863    1.000
    N51      N        0.47928    0.91490    0.00515    1.000
    O65      O        0.65168    0.81039    0.09031    1.000
    O66      O        0.59123    0.78140    0.17855    1.000
    O67      O        0.61401    0.91534    0.58153    1.000
    O68      O        0.56977    0.83095    0.59796    1.000
    C353     C        0.37320    0.98386    0.92133    1.000
    H209     H        0.36167    0.99373    0.87863    1.000
    C354     C        0.35313    0.98563    0.98993    1.000
    H210     H        0.32767    0.99573    0.99383    1.000
    C355     C        0.37050    0.97243    0.05223    1.000
    H211     H        0.35777    0.97403    0.09973    1.000
    C356     C        0.40698    0.95683    0.04483    1.000
    H212     H        0.41977    0.94793    0.08703    1.000
    C357     C        0.42440    0.95463    0.97467    1.000
    C358     C        0.45944    0.93549    0.95799    1.000
    C359     C        0.50196    0.90846    0.89147    1.000
    C360     C        0.50670    0.89718    0.96474    1.000
    C361     C        0.53259    0.87253    0.00225    1.000
    C362     C        0.51455    0.84832    0.07093    1.000
    H213     H        0.48537    0.84773    0.09293    1.000
    C363     C        0.53847    0.82547    0.10690    1.000
    H214     H        0.52547    0.80913    0.15333    1.000
    C364     C        0.58163    0.82579    0.07632    1.000
    C365     C        0.60014    0.85015    0.00767    1.000
    H215     H        0.62967    0.85113    0.98613    1.000
    C366     C        0.57572    0.87286    0.97094    1.000
    H216     H        0.58827    0.88873    0.92423    1.000
    C367     C        0.60928    0.80320    0.11891    1.000
    C368     C        0.52181    0.89887    0.82199    1.000
    C369     C        0.54480    0.93893    0.77006    1.000
    H217     H        0.54797    0.97153    0.78063    1.000
    C370     C        0.56298    0.93121    0.70314    1.000
    H218     H        0.57857    0.95853    0.66823    1.000
    C371     C        0.55830    0.88335    0.68726    1.000
    C372     C        0.53419    0.84299    0.73783    1.000
    H219     H        0.52967    0.80993    0.72633    1.000
    C373     C        0.51667    0.85109    0.80543    1.000
    H220     H        0.50117    0.82373    0.84033    1.000
    C374     C        0.58183    0.87667    0.61693    1.000
    H221     H        0.47717    0.91423    0.04633    1.000
    Zn18     Zn       0.10475    0.29185    0.14737    1.000
    N52      N        0.07497    0.30209    0.24650    1.000
    N53      N        0.13939    0.26549    0.22197    1.000
    N54      N        0.14594    0.24824    0.33849    1.000
    O69      O        0.31834    0.14373    0.42365    1.000
    O70      O        0.25789    0.11474    0.51189    1.000
    O71      O        0.28067    0.24868    0.91487    1.000
    O72      O        0.23643    0.16429    0.93130    1.000
    C375     C        0.03986    0.31720    0.25467    1.000
    H222     H        0.02833    0.32707    0.21197    1.000
    C376     C        0.01979    0.31897    0.32327    1.000
    H223     H        0.99433    0.32907    0.32717    1.000
    C377     C        0.03716    0.30577    0.38557    1.000
    H224     H        0.02443    0.30737    0.43307    1.000
    C378     C        0.07364    0.29017    0.37817    1.000
    H225     H        0.08643    0.28127    0.42037    1.000
    C379     C        0.09106    0.28797    0.30801    1.000
    C380     C        0.12610    0.26883    0.29133    1.000
    C381     C        0.16862    0.24180    0.22481    1.000
    C382     C        0.17336    0.23052    0.29808    1.000
    C383     C        0.19925    0.20587    0.33559    1.000
    C384     C        0.18121    0.18166    0.40427    1.000
    H226     H        0.15203    0.18107    0.42627    1.000
    C385     C        0.20513    0.15881    0.44024    1.000
    H227     H        0.19213    0.14247    0.48667    1.000
    C386     C        0.24829    0.15913    0.40966    1.000
    C387     C        0.26680    0.18349    0.34101    1.000
    H228     H        0.29633    0.18447    0.31947    1.000
    C388     C        0.24238    0.20620    0.30428    1.000
    H229     H        0.25493    0.22207    0.25757    1.000
    C389     C        0.27594    0.13654    0.45225    1.000
    C390     C        0.18847    0.23221    0.15533    1.000
    C391     C        0.21146    0.27227    0.10340    1.000
    H230     H        0.21463    0.30487    0.11397    1.000
    C392     C        0.22964    0.26455    0.03648    1.000
    H231     H        0.24523    0.29187    0.00157    1.000
    C393     C        0.22496    0.21669    0.02060    1.000
    C394     C        0.20085    0.17633    0.07117    1.000
    H232     H        0.19633    0.14327    0.05967    1.000
    C395     C        0.18333    0.18443    0.13877    1.000
    H233     H        0.16783    0.15707    0.17367    1.000
    C396     C        0.24849    0.21001    0.95027    1.000
    H234     H        0.14383    0.24757    0.37967    1.000
