# CIF file generated by openbabel 3.1.0, see https://openbabel.org
data_I
_chemical_name_common 'image0'
_cell_length_a 10.3912
_cell_length_b 11.8723
_cell_length_c 11.879
_cell_angle_alpha 82.379
_cell_angle_beta 87.725
_cell_angle_gamma 81.666
_space_group_name_H-M_alt 'P 1'
_space_group_name_Hall 'P 1'
loop_
    _symmetry_equiv_pos_as_xyz
    x,y,z
loop_
    _atom_site_label
    _atom_site_type_symbol
    _atom_site_fract_x
    _atom_site_fract_y
    _atom_site_fract_z
    _atom_site_occupancy
    Nd1      Nd       0.98104    0.07738    0.23929    1.000
    P1       P        0.70199    0.31665    0.27806    1.000
    P2       P        0.11861    0.11678    0.50462    1.000
    P3       P        0.84630    0.10744    0.96536    1.000
    O1       O        0.79990    0.21570    0.25910    1.000
    O2       O        0.56440    0.30120    0.24470    1.000
    H1       H        0.55130    0.33030    0.17880    1.000
    O3       O        0.73910    0.42950    0.22010    1.000
    O4       O        0.82090    0.33060    0.46830    1.000
    H2       H        0.81960    0.32890    0.53750    1.000
    O5       O        0.08170    0.07310    0.62400    1.000
    O6       O        0.01090    0.15360    0.42080    1.000
    O7       O        0.19810    0.21940    0.51150    1.000
    H3       H        0.20250    0.25640    0.44840    1.000
    O8       O        0.20440    0.00980    0.33000    1.000
    H4       H        0.24510    0.94660    0.31310    1.000
    O9       O        0.89400    0.07030    0.85340    1.000
    O10      O        0.94410    0.14110    0.03970    1.000
    O11      O        0.73340    0.20940    0.94000    1.000
    H5       H        0.75590    0.26840    0.95680    1.000
    O12      O        0.79830    0.99000    0.16380    1.000
    H6       H        0.75690    0.94850    0.21130    1.000
    C1       C        0.69440    0.31990    0.43140    1.000
    H7       H        0.67120    0.24630    0.46790    1.000
    C2       C        0.59520    0.41420    0.46790    1.000
    C3       C        0.47430    0.38880    0.50310    1.000
    H8       H        0.45620    0.31410    0.50520    1.000
    C4       C        0.62180    0.52670    0.46420    1.000
    H9       H        0.70340    0.54500    0.44000    1.000
    C5       C        0.22770    0.99990    0.44880    1.000
    H10      H        0.20260    0.92680    0.48460    1.000
    C6       C        0.36950    0.00040    0.47390    1.000
    C7       C        0.41460    0.95830    0.58220    1.000
    H11      H        0.35780    0.93020    0.63800    1.000
    C8       C        0.45570    0.04210    0.39260    1.000
    H12      H        0.42660    0.07090    0.32000    1.000
    C9       C        0.77430    0.98740    0.04590    1.000
    H13      H        0.82010    0.91540    0.02350    1.000
    C10      C        0.63110    0.99290    0.02380    1.000
    C11      C        0.53900    0.06320    0.07920    1.000
    H14      H        0.56490    0.10570    0.13250    1.000
    C12      C        0.59220    0.92930    0.94460    1.000
    H15      H        0.65380    0.88160    0.90740    1.000
    Nd2      Nd       0.01896    0.92262    0.76071    1.000
    P4       P        0.29801    0.68335    0.72194    1.000
    P5       P        0.88139    0.88322    0.49538    1.000
    P6       P        0.15370    0.89256    0.03464    1.000
    O13      O        0.20010    0.78430    0.74090    1.000
    O14      O        0.43560    0.69880    0.75530    1.000
    H16      H        0.44870    0.66970    0.82120    1.000
    O15      O        0.26090    0.57050    0.77990    1.000
    O16      O        0.17910    0.66940    0.53170    1.000
    H17      H        0.18040    0.67110    0.46250    1.000
    O17      O        0.91830    0.92690    0.37600    1.000
    O18      O        0.98910    0.84640    0.57920    1.000
    O19      O        0.80190    0.78060    0.48850    1.000
    H18      H        0.79750    0.74360    0.55160    1.000
    O20      O        0.79560    0.99020    0.67000    1.000
    H19      H        0.75490    0.05340    0.68690    1.000
    O21      O        0.10600    0.92970    0.14660    1.000
    O22      O        0.05590    0.85890    0.96030    1.000
    O23      O        0.26660    0.79060    0.06000    1.000
    H20      H        0.24410    0.73160    0.04320    1.000
    O24      O        0.20170    0.01000    0.83620    1.000
    H21      H        0.24310    0.05150    0.78870    1.000
    C13      C        0.30560    0.68010    0.56860    1.000
    H22      H        0.32880    0.75370    0.53210    1.000
    C14      C        0.40480    0.58580    0.53210    1.000
    C15      C        0.52570    0.61120    0.49690    1.000
    H23      H        0.54380    0.68590    0.49480    1.000
    C16      C        0.37820    0.47330    0.53580    1.000
    H24      H        0.29660    0.45500    0.56000    1.000
    C17      C        0.77230    0.00010    0.55120    1.000
    H25      H        0.79740    0.07320    0.51540    1.000
    C18      C        0.63050    0.99960    0.52610    1.000
    C19      C        0.58540    0.04170    0.41780    1.000
    H26      H        0.64220    0.06980    0.36200    1.000
    C20      C        0.54430    0.95790    0.60740    1.000
    H27      H        0.57340    0.92910    0.68000    1.000
    C21      C        0.22570    0.01260    0.95410    1.000
    H28      H        0.17990    0.08460    0.97650    1.000
    C22      C        0.36890    0.00710    0.97620    1.000
    C23      C        0.46100    0.93680    0.92080    1.000
    H29      H        0.43510    0.89430    0.86750    1.000
    C24      C        0.40780    0.07070    0.05540    1.000
    H30      H        0.34620    0.11840    0.09260    1.000
