# CIF file generated by openbabel 3.1.0, see https://openbabel.org
data_I
_chemical_name_common 'image0'
_cell_length_a 9.2671
_cell_length_b 17.1198
_cell_length_c 24.8416
_cell_angle_alpha 90
_cell_angle_beta 90
_cell_angle_gamma 90
_space_group_name_H-M_alt 'P 1'
_space_group_name_Hall 'P 1'
loop_
    _symmetry_equiv_pos_as_xyz
    x,y,z
loop_
    _atom_site_label
    _atom_site_type_symbol
    _atom_site_fract_x
    _atom_site_fract_y
    _atom_site_fract_z
    _atom_site_occupancy
    Zn1      Zn       0.18146    0.19998    0.24912    1.000
    P1       P        0.84496    0.14213    0.24568    1.000
    O1       O        0.97660    0.19137    0.25523    1.000
    O2       O        0.83830    0.07109    0.28521    1.000
    O3       O        0.85470    0.09978    0.19075    1.000
    O4       O        0.71010    0.18986    0.25091    1.000
    N1       N        0.26490    0.14324    0.31314    1.000
    N2       N        0.27780    0.14707    0.18615    1.000
    C1       C        0.18030    0.11500    0.35272    1.000
    C2       C        0.23430    0.07510    0.39655    1.000
    C3       C        0.38310    0.06461    0.40120    1.000
    C4       C        0.46960    0.09200    0.35976    1.000
    C5       C        0.40840    0.13080    0.31696    1.000
    C6       C        0.44430    0.02808    0.45067    1.000
    C7       C        0.25020    0.07240    0.17506    1.000
    C8       C        0.31150    0.03400    0.13242    1.000
    C9       C        0.40410    0.07252    0.09881    1.000
    C10      C        0.43650    0.14990    0.11092    1.000
    C11      C        0.37120    0.18480    0.15425    1.000
    C12      C        0.46100    0.03498    0.04895    1.000
    H1       H        0.17370    0.05920    0.42600    1.000
    H2       H        0.57990    0.09060    0.36170    1.000
    H3       H        0.46410    0.15660    0.28870    1.000
    H4       H        0.07960    0.11920    0.34840    1.000
    H5       H        0.17900    0.04910    0.20150    1.000
    H6       H        0.30720    0.97670    0.12770    1.000
    H7       H        0.49220    0.18040    0.08500    1.000
    H8       H        0.39540    0.23490    0.16470    1.000
    H9       H        0.83950    0.09150    0.31730    1.000
    H10      H        0.87910    0.13130    0.16020    1.000
    Zn2      Zn       0.81854    0.80002    0.24912    1.000
    P2       P        0.15504    0.85787    0.24568    1.000
    O5       O        0.02340    0.80863    0.25523    1.000
    O6       O        0.16170    0.92891    0.28521    1.000
    O7       O        0.14530    0.90022    0.19075    1.000
    O8       O        0.28990    0.81014    0.25091    1.000
    N3       N        0.73510    0.85676    0.31314    1.000
    N4       N        0.72220    0.85293    0.18615    1.000
    C13      C        0.81970    0.88500    0.35272    1.000
    C14      C        0.76570    0.92490    0.39655    1.000
    C15      C        0.61690    0.93539    0.40120    1.000
    C16      C        0.53040    0.90800    0.35976    1.000
    C17      C        0.59160    0.86920    0.31696    1.000
    C18      C        0.55570    0.97192    0.45067    1.000
    C19      C        0.74980    0.92760    0.17506    1.000
    C20      C        0.68850    0.96600    0.13242    1.000
    C21      C        0.59590    0.92748    0.09881    1.000
    C22      C        0.56350    0.85010    0.11092    1.000
    C23      C        0.62880    0.81520    0.15425    1.000
    C24      C        0.53900    0.96502    0.04895    1.000
    H11      H        0.82630    0.94080    0.42600    1.000
    H12      H        0.42010    0.90940    0.36170    1.000
    H13      H        0.53590    0.84340    0.28870    1.000
    H14      H        0.92040    0.88080    0.34840    1.000
    H15      H        0.82100    0.95090    0.20150    1.000
    H16      H        0.69280    0.02330    0.12770    1.000
    H17      H        0.50780    0.81960    0.08500    1.000
    H18      H        0.60460    0.76510    0.16470    1.000
    H19      H        0.16050    0.90850    0.31730    1.000
    H20      H        0.12090    0.86870    0.16020    1.000
    Zn3      Zn       0.31854    0.69998    0.25088    1.000
    P3       P        0.65504    0.64213    0.25432    1.000
    O9       O        0.52340    0.69137    0.24477    1.000
    O10      O        0.66170    0.57109    0.21479    1.000
    O11      O        0.64530    0.59978    0.30925    1.000
    O12      O        0.78990    0.68986    0.24909    1.000
    N5       N        0.23510    0.64324    0.18686    1.000
    N6       N        0.22220    0.64707    0.31385    1.000
    C25      C        0.31970    0.61500    0.14728    1.000
    C26      C        0.26570    0.57510    0.10345    1.000
    C27      C        0.11690    0.56461    0.09880    1.000
    C28      C        0.03040    0.59200    0.14024    1.000
    C29      C        0.09160    0.63080    0.18304    1.000
    C30      C        0.05570    0.52808    0.04933    1.000
    C31      C        0.24980    0.57240    0.32494    1.000
    C32      C        0.18850    0.53400    0.36758    1.000
    C33      C        0.09590    0.57252    0.40119    1.000
    C34      C        0.06350    0.64990    0.38908    1.000
    C35      C        0.12880    0.68480    0.34575    1.000
    C36      C        0.03900    0.53498    0.45105    1.000
    H21      H        0.32630    0.55920    0.07400    1.000
    H22      H        0.92010    0.59060    0.13830    1.000
    H23      H        0.03590    0.65660    0.21130    1.000
    H24      H        0.42040    0.61920    0.15160    1.000
    H25      H        0.32100    0.54910    0.29850    1.000
    H26      H        0.19280    0.47670    0.37230    1.000
    H27      H        0.00780    0.68040    0.41500    1.000
    H28      H        0.10460    0.73490    0.33530    1.000
    H29      H        0.66050    0.59150    0.18270    1.000
    H30      H        0.62090    0.63130    0.33980    1.000
    Zn4      Zn       0.68146    0.30002    0.25088    1.000
    P4       P        0.34496    0.35787    0.25432    1.000
    O13      O        0.47660    0.30863    0.24477    1.000
    O14      O        0.33830    0.42891    0.21479    1.000
    O15      O        0.35470    0.40022    0.30925    1.000
    O16      O        0.21010    0.31014    0.24909    1.000
    N7       N        0.76490    0.35676    0.18686    1.000
    N8       N        0.77780    0.35293    0.31385    1.000
    C37      C        0.68030    0.38500    0.14728    1.000
    C38      C        0.73430    0.42490    0.10345    1.000
    C39      C        0.88310    0.43539    0.09880    1.000
    C40      C        0.96960    0.40800    0.14024    1.000
    C41      C        0.90840    0.36920    0.18304    1.000
    C42      C        0.94430    0.47192    0.04933    1.000
    C43      C        0.75020    0.42760    0.32494    1.000
    C44      C        0.81150    0.46600    0.36758    1.000
    C45      C        0.90410    0.42748    0.40119    1.000
    C46      C        0.93650    0.35010    0.38908    1.000
    C47      C        0.87120    0.31520    0.34575    1.000
    C48      C        0.96100    0.46502    0.45105    1.000
    H31      H        0.67370    0.44080    0.07400    1.000
    H32      H        0.07990    0.40940    0.13830    1.000
    H33      H        0.96410    0.34340    0.21130    1.000
    H34      H        0.57960    0.38080    0.15160    1.000
    H35      H        0.67900    0.45090    0.29850    1.000
    H36      H        0.80720    0.52330    0.37230    1.000
    H37      H        0.99220    0.31960    0.41500    1.000
    H38      H        0.89540    0.26510    0.33530    1.000
    H39      H        0.33950    0.40850    0.18270    1.000
    H40      H        0.37910    0.36870    0.33980    1.000
    Zn5      Zn       0.81854    0.80002    0.75088    1.000
    P5       P        0.15504    0.85787    0.75432    1.000
    O17      O        0.02340    0.80863    0.74477    1.000
    O18      O        0.16170    0.92891    0.71479    1.000
    O19      O        0.14530    0.90022    0.80925    1.000
    O20      O        0.28990    0.81014    0.74909    1.000
    N9       N        0.73510    0.85676    0.68686    1.000
    N10      N        0.72220    0.85293    0.81385    1.000
    C49      C        0.81970    0.88500    0.64728    1.000
    C50      C        0.76570    0.92490    0.60345    1.000
    C51      C        0.61690    0.93539    0.59880    1.000
    C52      C        0.53040    0.90800    0.64024    1.000
    C53      C        0.59160    0.86920    0.68304    1.000
    C54      C        0.55570    0.97192    0.54933    1.000
    C55      C        0.74980    0.92760    0.82494    1.000
    C56      C        0.68850    0.96600    0.86758    1.000
    C57      C        0.59590    0.92748    0.90119    1.000
    C58      C        0.56350    0.85010    0.88908    1.000
    C59      C        0.62880    0.81520    0.84575    1.000
    C60      C        0.53900    0.96502    0.95105    1.000
    H41      H        0.82630    0.94080    0.57400    1.000
    H42      H        0.42010    0.90940    0.63830    1.000
    H43      H        0.53590    0.84340    0.71130    1.000
    H44      H        0.92040    0.88080    0.65160    1.000
    H45      H        0.82100    0.95090    0.79850    1.000
    H46      H        0.69280    0.02330    0.87230    1.000
    H47      H        0.50780    0.81960    0.91500    1.000
    H48      H        0.60460    0.76510    0.83530    1.000
    H49      H        0.16050    0.90850    0.68270    1.000
    H50      H        0.12090    0.86870    0.83980    1.000
    Zn6      Zn       0.18146    0.19998    0.75088    1.000
    P6       P        0.84496    0.14213    0.75432    1.000
    O21      O        0.97660    0.19137    0.74477    1.000
    O22      O        0.83830    0.07109    0.71479    1.000
    O23      O        0.85470    0.09978    0.80925    1.000
    O24      O        0.71010    0.18986    0.74909    1.000
    N11      N        0.26490    0.14324    0.68686    1.000
    N12      N        0.27780    0.14707    0.81385    1.000
    C61      C        0.18030    0.11500    0.64728    1.000
    C62      C        0.23430    0.07510    0.60345    1.000
    C63      C        0.38310    0.06461    0.59880    1.000
    C64      C        0.46960    0.09200    0.64024    1.000
    C65      C        0.40840    0.13080    0.68304    1.000
    C66      C        0.44430    0.02808    0.54933    1.000
    C67      C        0.25020    0.07240    0.82494    1.000
    C68      C        0.31150    0.03400    0.86758    1.000
    C69      C        0.40410    0.07252    0.90119    1.000
    C70      C        0.43650    0.14990    0.88908    1.000
    C71      C        0.37120    0.18480    0.84575    1.000
    C72      C        0.46100    0.03498    0.95105    1.000
    H51      H        0.17370    0.05920    0.57400    1.000
    H52      H        0.57990    0.09060    0.63830    1.000
    H53      H        0.46410    0.15660    0.71130    1.000
    H54      H        0.07960    0.11920    0.65160    1.000
    H55      H        0.17900    0.04910    0.79850    1.000
    H56      H        0.30720    0.97670    0.87230    1.000
    H57      H        0.49220    0.18040    0.91500    1.000
    H58      H        0.39540    0.23490    0.83530    1.000
    H59      H        0.83950    0.09150    0.68270    1.000
    H60      H        0.87910    0.13130    0.83980    1.000
    Zn7      Zn       0.68146    0.30002    0.74912    1.000
    P7       P        0.34496    0.35787    0.74568    1.000
    O25      O        0.47660    0.30863    0.75523    1.000
    O26      O        0.33830    0.42891    0.78521    1.000
    O27      O        0.35470    0.40022    0.69075    1.000
    O28      O        0.21010    0.31014    0.75091    1.000
    N13      N        0.76490    0.35676    0.81314    1.000
    N14      N        0.77780    0.35293    0.68615    1.000
    C73      C        0.68030    0.38500    0.85272    1.000
    C74      C        0.73430    0.42490    0.89655    1.000
    C75      C        0.88310    0.43539    0.90120    1.000
    C76      C        0.96960    0.40800    0.85976    1.000
    C77      C        0.90840    0.36920    0.81696    1.000
    C78      C        0.94430    0.47192    0.95067    1.000
    C79      C        0.75020    0.42760    0.67506    1.000
    C80      C        0.81150    0.46600    0.63242    1.000
    C81      C        0.90410    0.42748    0.59881    1.000
    C82      C        0.93650    0.35010    0.61092    1.000
    C83      C        0.87120    0.31520    0.65425    1.000
    C84      C        0.96100    0.46502    0.54895    1.000
    H61      H        0.67370    0.44080    0.92600    1.000
    H62      H        0.07990    0.40940    0.86170    1.000
    H63      H        0.96410    0.34340    0.78870    1.000
    H64      H        0.57960    0.38080    0.84840    1.000
    H65      H        0.67900    0.45090    0.70150    1.000
    H66      H        0.80720    0.52330    0.62770    1.000
    H67      H        0.99220    0.31960    0.58500    1.000
    H68      H        0.89540    0.26510    0.66470    1.000
    H69      H        0.33950    0.40850    0.81730    1.000
    H70      H        0.37910    0.36870    0.66020    1.000
    Zn8      Zn       0.31854    0.69998    0.74912    1.000
    P8       P        0.65504    0.64213    0.74568    1.000
    O29      O        0.52340    0.69137    0.75523    1.000
    O30      O        0.66170    0.57109    0.78521    1.000
    O31      O        0.64530    0.59978    0.69075    1.000
    O32      O        0.78990    0.68986    0.75091    1.000
    N15      N        0.23510    0.64324    0.81314    1.000
    N16      N        0.22220    0.64707    0.68615    1.000
    C85      C        0.31970    0.61500    0.85272    1.000
    C86      C        0.26570    0.57510    0.89655    1.000
    C87      C        0.11690    0.56461    0.90120    1.000
    C88      C        0.03040    0.59200    0.85976    1.000
    C89      C        0.09160    0.63080    0.81696    1.000
    C90      C        0.05570    0.52808    0.95067    1.000
    C91      C        0.24980    0.57240    0.67506    1.000
    C92      C        0.18850    0.53400    0.63242    1.000
    C93      C        0.09590    0.57252    0.59881    1.000
    C94      C        0.06350    0.64990    0.61092    1.000
    C95      C        0.12880    0.68480    0.65425    1.000
    C96      C        0.03900    0.53498    0.54895    1.000
    H71      H        0.32630    0.55920    0.92600    1.000
    H72      H        0.92010    0.59060    0.86170    1.000
    H73      H        0.03590    0.65660    0.78870    1.000
    H74      H        0.42040    0.61920    0.84840    1.000
    H75      H        0.32100    0.54910    0.70150    1.000
    H76      H        0.19280    0.47670    0.62770    1.000
    H77      H        0.00780    0.68040    0.58500    1.000
    H78      H        0.10460    0.73490    0.66470    1.000
    H79      H        0.66050    0.59150    0.81730    1.000
    H80      H        0.62090    0.63130    0.66020    1.000
    C97      C        0.39080    0.05330    0.50000    1.000
    H81      H        0.32660    0.09140    0.50000    1.000
    C98      C        0.60920    0.94670    0.50000    1.000
    H82      H        0.67340    0.90860    0.50000    1.000
    C99      C        0.10920    0.55330    0.00000    1.000
    H83      H        0.17340    0.59140    0.00000    1.000
    C100     C        0.89080    0.44670    0.00000    1.000
    H84      H        0.82660    0.40860    0.00000    1.000
    C101     C        0.42240    0.06830    0.00000    1.000
    H85      H        0.36420    0.11380    0.00000    1.000
    C102     C        0.57760    0.93170    0.00000    1.000
    H86      H        0.63580    0.88620    0.00000    1.000
    C103     C        0.07760    0.56830    0.50000    1.000
    H87      H        0.13580    0.61380    0.50000    1.000
    C104     C        0.92240    0.43170    0.50000    1.000
    H88      H        0.86420    0.38620    0.50000    1.000
