# CIF file generated by openbabel 3.1.0, see https://openbabel.org
data_I
_chemical_name_common 'image0'
_cell_length_a 9.687
_cell_length_b 13.3514
_cell_length_c 13.4083
_cell_angle_alpha 90
_cell_angle_beta 93.07
_cell_angle_gamma 90
_space_group_name_H-M_alt 'P 1'
_space_group_name_Hall 'P 1'
loop_
    _symmetry_equiv_pos_as_xyz
    x,y,z
loop_
    _atom_site_label
    _atom_site_type_symbol
    _atom_site_fract_x
    _atom_site_fract_y
    _atom_site_fract_z
    _atom_site_occupancy
    Zn1      Zn       0.14037    0.54840    0.25616    1.000
    Zn2      Zn       0.84712    0.54669    0.24391    1.000
    O1       O        0.89500    0.89960    0.77010    1.000
    O2       O        0.12290    0.90130    0.80530    1.000
    O3       O        0.09690    0.57360    0.10910    1.000
    O4       O        0.86920    0.59560    0.10430    1.000
    O5       O        0.10450    0.69380    0.28240    1.000
    O6       O        0.87740    0.68900    0.29300    1.000
    O7       O        0.88420    0.02100    0.59760    1.000
    O8       O        0.10830    0.99720    0.61510    1.000
    N1       N        0.63600    0.54760    0.24440    1.000
    N2       N        0.35010    0.55070    0.25420    1.000
    N3       N        0.35650    0.73200    0.23190    1.000
    H1       H        0.27700    0.73740    0.26040    1.000
    H2       H        0.39820    0.78600    0.21080    1.000
    C1       C        0.98400    0.59410    0.06450    1.000
    C2       C        0.98470    0.62250    0.95490    1.000
    C3       C        0.99550    0.99690    0.56480    1.000
    C4       C        0.99550    0.96850    0.45420    1.000
    C5       C        0.99050    0.84230    0.32820    1.000
    C6       C        0.00600    0.79700    0.50830    1.000
    C7       C        0.99270    0.73260    0.29880    1.000
    C8       C        0.04560    0.73340    0.94060    1.000
    C9       C        0.00390    0.74820    0.82840    1.000
    C10      C        0.00740    0.85990    0.79820    1.000
    C11      C        0.89010    0.69420    0.80550    1.000
    H3       H        0.89260    0.66650    0.73710    1.000
    H4       H        0.80610    0.73590    0.80950    1.000
    C12      C        0.89120    0.60230    0.88980    1.000
    H5       H        0.80060    0.59820    0.92030    1.000
    H6       H        0.91000    0.53720    0.85780    1.000
    C13      C        0.18620    0.76100    0.99180    1.000
    H7       H        0.20080    0.83350    0.98670    1.000
    H8       H        0.26000    0.72560    0.95900    1.000
    H9       H        0.18760    0.74160    0.06230    1.000
    C14      C        0.94230    0.80520    0.99610    1.000
    H10      H        0.96700    0.87530    0.98440    1.000
    H11      H        0.94920    0.79130    0.06800    1.000
    H12      H        0.84730    0.79310    0.97000    1.000
    C15      C        0.13300    0.69720    0.77610    1.000
    H13      H        0.11340    0.69480    0.70370    1.000
    H14      H        0.14670    0.62910    0.80190    1.000
    H15      H        0.21640    0.73690    0.79110    1.000
    C16      C        0.12400    0.89230    0.33050    1.000
    H16      H        0.14220    0.91600    0.26250    1.000
    H17      H        0.19730    0.84380    0.35130    1.000
    C17      C        0.13000    0.98310    0.40370    1.000
    H18      H        0.21080    0.97900    0.45200    1.000
    H19      H        0.13180    0.04770    0.36760    1.000
    C18      C        0.94440    0.86000    0.43530    1.000
    C19      C        0.79300    0.83430    0.45480    1.000
    H20      H        0.78040    0.83540    0.52680    1.000
    H21      H        0.77070    0.76750    0.42830    1.000
    H22      H        0.73160    0.88380    0.42160    1.000
    C20      C        0.87800    0.89550    0.25390    1.000
    H23      H        0.78510    0.87610    0.27180    1.000
    H24      H        0.89240    0.87470    0.18520    1.000
    H25      H        0.88820    0.96840    0.25940    1.000
    C21      C        0.55920    0.46240    0.24830    1.000
    C22      C        0.42570    0.46240    0.25180    1.000
    C23      C        0.40860    0.63420    0.25060    1.000
    C24      C        0.56950    0.63320    0.24990    1.000
    C25      C        0.56720    0.46410    0.27870    1.000
    C26      C        0.42430    0.46560    0.28360    1.000
    C27      C        0.41890    0.63420    0.21990    1.000
    C28      C        0.56180    0.63270    0.21500    1.000
    C29      C        0.87770    0.97880    0.39300    1.000
    H26      H        0.87570    0.04650    0.36280    1.000
    H27      H        0.79540    0.97180    0.43310    1.000
    C30      C        0.87200    0.90050    0.31070    1.000
    H28      H        0.78810    0.85900    0.31360    1.000
    H29      H        0.87270    0.93280    0.24420    1.000
    C31      C        0.04580    0.85230    0.44240    1.000
    C32      C        0.19070    0.82330    0.46600    1.000
    H30      H        0.20070    0.75080    0.45780    1.000
    H31      H        0.21700    0.84180    0.53520    1.000
    H32      H        0.25090    0.85810    0.42080    1.000
    C33      C        0.10100    0.02800    0.40040    1.000
    H33      H        0.05550    0.08210    0.36270    1.000
    H34      H        0.14790    0.98340    0.35430    1.000
    H35      H        0.16990    0.05560    0.44910    1.000
    C34      C        0.93640    0.73830    0.93640    1.000
    C35      C        0.09670    0.60670    0.90690    1.000
    H36      H        0.09040    0.54010    0.87450    1.000
    H37      H        0.17740    0.60590    0.95540    1.000
    C36      C        0.11960    0.68460    0.82890    1.000
    H38      H        0.20540    0.72270    0.84560    1.000
    H39      H        0.12710    0.65300    0.76260    1.000
    C37      C        0.79380    0.76900    0.95000    1.000
    H40      H        0.78600    0.84180    0.94230    1.000
    H41      H        0.76760    0.74980    0.01690    1.000
    H42      H        0.73220    0.73600    0.89980    1.000
    C38      C        0.02500    0.80770    0.00470    1.000
    H43      H        0.01470    0.78880    0.07460    1.000
    H44      H        0.99460    0.87710    0.99440    1.000
    H45      H        0.12220    0.80160    0.98890    1.000
    C39      C        0.84800    0.55700    0.89660    1.000
    H46      H        0.87020    0.48550    0.89610    1.000
    H47      H        0.83310    0.58100    0.82780    1.000
    H48      H        0.76440    0.56800    0.93290    1.000
    N4       N        0.61970    0.37010    0.25090    1.000
    H49      H        0.69200    0.36690    0.21400    1.000
    H50      H        0.58020    0.31460    0.27050    1.000
    N5       N        0.36670    0.37280    0.27140    1.000
    H51      H        0.28210    0.36660    0.24480    1.000
    H52      H        0.41420    0.31920    0.29010    1.000
    Zn3      Zn       0.85963    0.04840    0.74384    1.000
    Zn4      Zn       0.15288    0.04669    0.75609    1.000
    O9       O        0.10500    0.39960    0.22990    1.000
    O10      O        0.87710    0.40130    0.19470    1.000
    O11      O        0.90310    0.07360    0.89090    1.000
    O12      O        0.13080    0.09560    0.89570    1.000
    O13      O        0.89550    0.19380    0.71760    1.000
    O14      O        0.12260    0.18900    0.70700    1.000
    O15      O        0.11580    0.52100    0.40240    1.000
    O16      O        0.89170    0.49720    0.38490    1.000
    N6       N        0.36400    0.04760    0.75560    1.000
    N7       N        0.64990    0.05070    0.74580    1.000
    N8       N        0.64350    0.23200    0.76810    1.000
    H53      H        0.72300    0.23740    0.73960    1.000
    H54      H        0.60180    0.28600    0.78920    1.000
    C40      C        0.01600    0.09410    0.93550    1.000
    C41      C        0.01530    0.12250    0.04510    1.000
    C42      C        0.00450    0.49690    0.43520    1.000
    C43      C        0.00450    0.46850    0.54580    1.000
    C44      C        0.00950    0.34230    0.67180    1.000
    C45      C        0.99400    0.29700    0.49170    1.000
    C46      C        0.00730    0.23260    0.70120    1.000
    C47      C        0.95440    0.23340    0.05940    1.000
    C48      C        0.99610    0.24820    0.17160    1.000
    C49      C        0.99260    0.35990    0.20180    1.000
    C50      C        0.10990    0.19420    0.19450    1.000
    H55      H        0.10740    0.16650    0.26290    1.000
    H56      H        0.19390    0.23590    0.19050    1.000
    C51      C        0.10880    0.10230    0.11020    1.000
    H57      H        0.19940    0.09820    0.07970    1.000
    H58      H        0.09000    0.03720    0.14220    1.000
    C52      C        0.81380    0.26100    0.00820    1.000
    H59      H        0.79920    0.33350    0.01330    1.000
    H60      H        0.74000    0.22560    0.04100    1.000
    H61      H        0.81240    0.24160    0.93770    1.000
    C53      C        0.05770    0.30520    0.00390    1.000
    H62      H        0.03300    0.37530    0.01560    1.000
    H63      H        0.05080    0.29130    0.93200    1.000
    H64      H        0.15270    0.29310    0.03000    1.000
    C54      C        0.86700    0.19720    0.22390    1.000
    H65      H        0.88660    0.19480    0.29630    1.000
    H66      H        0.85330    0.12910    0.19810    1.000
    H67      H        0.78360    0.23690    0.20890    1.000
    C55      C        0.87600    0.39230    0.66950    1.000
    H68      H        0.85780    0.41600    0.73750    1.000
    H69      H        0.80270    0.34380    0.64870    1.000
    C56      C        0.87000    0.48310    0.59630    1.000
    H70      H        0.78920    0.47900    0.54800    1.000
    H71      H        0.86820    0.54770    0.63240    1.000
    C57      C        0.05560    0.36000    0.56470    1.000
    C58      C        0.20700    0.33430    0.54520    1.000
    H72      H        0.21960    0.33540    0.47320    1.000
    H73      H        0.22930    0.26750    0.57170    1.000
    H74      H        0.26840    0.38380    0.57840    1.000
    C59      C        0.12200    0.39550    0.74610    1.000
    H75      H        0.21490    0.37610    0.72820    1.000
    H76      H        0.10760    0.37470    0.81480    1.000
    H77      H        0.11180    0.46840    0.74060    1.000
    C60      C        0.44080    0.96240    0.75170    1.000
    C61      C        0.57430    0.96240    0.74820    1.000
    C62      C        0.59140    0.13420    0.74940    1.000
    C63      C        0.43050    0.13320    0.75010    1.000
    C64      C        0.43280    0.96410    0.72130    1.000
    C65      C        0.57570    0.96560    0.71640    1.000
    C66      C        0.58110    0.13420    0.78010    1.000
    C67      C        0.43820    0.13270    0.78500    1.000
    C68      C        0.12230    0.47880    0.60700    1.000
    H78      H        0.12430    0.54650    0.63720    1.000
    H79      H        0.20460    0.47180    0.56690    1.000
    C69      C        0.12800    0.40050    0.68930    1.000
    H80      H        0.21190    0.35900    0.68640    1.000
    H81      H        0.12730    0.43280    0.75580    1.000
    C70      C        0.95420    0.35230    0.55760    1.000
    C71      C        0.80930    0.32330    0.53400    1.000
    H82      H        0.79930    0.25080    0.54220    1.000
    H83      H        0.78300    0.34180    0.46480    1.000
    H84      H        0.74910    0.35810    0.57920    1.000
    C72      C        0.89900    0.52800    0.59960    1.000
    H85      H        0.94450    0.58210    0.63730    1.000
    H86      H        0.85210    0.48340    0.64570    1.000
    H87      H        0.83010    0.55560    0.55090    1.000
    C73      C        0.06360    0.23830    0.06360    1.000
    C74      C        0.90330    0.10670    0.09310    1.000
    H88      H        0.90960    0.04010    0.12550    1.000
    H89      H        0.82260    0.10590    0.04460    1.000
    C75      C        0.88040    0.18460    0.17110    1.000
    H90      H        0.79460    0.22270    0.15440    1.000
    H91      H        0.87290    0.15300    0.23740    1.000
    C76      C        0.20620    0.26900    0.05000    1.000
    H92      H        0.21400    0.34180    0.05770    1.000
    H93      H        0.23240    0.24980    0.98310    1.000
    H94      H        0.26780    0.23600    0.10020    1.000
    C77      C        0.97500    0.30770    0.99530    1.000
    H95      H        0.98530    0.28880    0.92540    1.000
    H96      H        0.00540    0.37710    0.00560    1.000
    H97      H        0.87780    0.30160    0.01110    1.000
    C78      C        0.15200    0.05700    0.10340    1.000
    H98      H        0.12980    0.98550    0.10390    1.000
    H99      H        0.16690    0.08100    0.17220    1.000
    H100     H        0.23560    0.06800    0.06710    1.000
    N9       N        0.38030    0.87010    0.74910    1.000
    H101     H        0.30800    0.86690    0.78600    1.000
    H102     H        0.41980    0.81460    0.72950    1.000
    N10      N        0.63330    0.87280    0.72860    1.000
    H103     H        0.71790    0.86660    0.75520    1.000
    H104     H        0.58580    0.81920    0.70990    1.000
