# CIF file generated by openbabel 3.1.0, see https://openbabel.org
data_I
_chemical_name_common 'image0'
_cell_length_a 9.8792
_cell_length_b 12.0798
_cell_length_c 12.2591
_cell_angle_alpha 109.808
_cell_angle_beta 100.045
_cell_angle_gamma 102.515
_space_group_name_H-M_alt 'P 1'
_space_group_name_Hall 'P 1'
loop_
    _symmetry_equiv_pos_as_xyz
    x,y,z
loop_
    _atom_site_label
    _atom_site_type_symbol
    _atom_site_fract_x
    _atom_site_fract_y
    _atom_site_fract_z
    _atom_site_occupancy
    U1       U        0.89620    0.17411    0.52161    1.000
    U2       U        0.13682    0.33724    0.98842    1.000
    P1       P        0.74280    0.33790    0.36620    1.000
    P2       P        0.01710    0.54250    0.20850    1.000
    P3       P        0.03550    0.04740    0.72830    1.000
    P4       P        0.72280    0.75850    0.77940    1.000
    O1       O        0.64660    0.23060    0.25110    1.000
    H1       H        0.56220    0.22900    0.24570    1.000
    O2       O        0.65860    0.38720    0.45250    1.000
    O3       O        0.86250    0.29650    0.42160    1.000
    O4       O        0.12890    0.50560    0.14290    1.000
    O5       O        0.88730    0.54880    0.12440    1.000
    O6       O        0.09370    0.66730    0.30910    1.000
    O7       O        0.13310    0.16960    0.82590    1.000
    O8       O        0.92140    0.06550    0.63960    1.000
    O9       O        0.13270    0.98050    0.66390    1.000
    O10      O        0.62040    0.83080    0.82260    1.000
    O11      O        0.64360    0.62800    0.68860    1.000
    O12      O        0.82810    0.75860    0.88650    1.000
    C1       C        0.82950    0.45670    0.32560    1.000
    H2       H        0.75740    0.47080    0.27140    1.000
    H3       H        0.87030    0.53200    0.39750    1.000
    C2       C        0.94980    0.43140    0.26460    1.000
    H4       H        0.91280    0.35100    0.19870    1.000
    H5       H        0.02850    0.42880    0.32250    1.000
    C3       C        0.94340    0.95580    0.79890    1.000
    H6       H        0.01420    0.93670    0.84930    1.000
    H7       H        0.89580    0.00450    0.85070    1.000
    C4       C        0.83390    0.83770    0.71070    1.000
    H8       H        0.88350    0.78350    0.66780    1.000
    H9       H        0.77250    0.85570    0.65210    1.000
    U3       U        0.10380    0.82589    0.47839    1.000
    U4       U        0.86318    0.66276    0.01158    1.000
    P5       P        0.25720    0.66210    0.63380    1.000
    P6       P        0.98290    0.45750    0.79150    1.000
    P7       P        0.96450    0.95260    0.27170    1.000
    P8       P        0.27720    0.24150    0.22060    1.000
    O13      O        0.35340    0.76940    0.74890    1.000
    H10      H        0.43780    0.77100    0.75430    1.000
    O14      O        0.34140    0.61280    0.54750    1.000
    O15      O        0.13750    0.70350    0.57840    1.000
    O16      O        0.87110    0.49440    0.85710    1.000
    O17      O        0.11270    0.45120    0.87560    1.000
    O18      O        0.90630    0.33270    0.69090    1.000
    O19      O        0.86690    0.83040    0.17410    1.000
    O20      O        0.07860    0.93450    0.36040    1.000
    O21      O        0.86730    0.01950    0.33610    1.000
    O22      O        0.37960    0.16920    0.17740    1.000
    O23      O        0.35640    0.37200    0.31140    1.000
    O24      O        0.17190    0.24140    0.11350    1.000
    C5       C        0.17050    0.54330    0.67440    1.000
    H11      H        0.24260    0.52920    0.72860    1.000
    H12      H        0.12970    0.46800    0.60250    1.000
    C6       C        0.05020    0.56860    0.73540    1.000
    H13      H        0.08720    0.64900    0.80130    1.000
    H14      H        0.97150    0.57120    0.67750    1.000
    C7       C        0.05660    0.04420    0.20110    1.000
    H15      H        0.98580    0.06330    0.15070    1.000
    H16      H        0.10420    0.99550    0.14930    1.000
    C8       C        0.16610    0.16230    0.28930    1.000
    H17      H        0.11650    0.21650    0.33220    1.000
    H18      H        0.22750    0.14430    0.34790    1.000
    U5       U        0.50000    0.50000    0.50000    1.000
