# CIF file generated by openbabel 3.1.0, see https://openbabel.org
data_I
_chemical_name_common 'MUXHUI01_clean'
_cell_length_a 7.7008
_cell_length_b 9.9155
_cell_length_c 14.9899
_cell_angle_alpha 90
_cell_angle_beta 98.466
_cell_angle_gamma 90
_space_group_name_H-M_alt 'P 1'
_space_group_name_Hall 'P 1'
loop_
    _symmetry_equiv_pos_as_xyz
    x,y,z
loop_
    _atom_site_label
    _atom_site_type_symbol
    _atom_site_fract_x
    _atom_site_fract_y
    _atom_site_fract_z
    _atom_site_occupancy
    Nd1      Nd       0.85508    0.54385    0.64001    1.000
    Nd2      Nd       0.64492    0.04385    0.85999    1.000
    Nd3      Nd       0.14492    0.45615    0.35999    1.000
    Nd4      Nd       0.35508    0.95615    0.14001    1.000
    H1       H        0.82610    0.11090    0.63390    1.000
    H2       H        0.79600    0.10900    0.36470    1.000
    H3       H        0.61730    0.80140    0.48440    1.000
    H4       H        0.67390    0.61090    0.86610    1.000
    H5       H        0.70400    0.60900    0.13530    1.000
    H6       H        0.88270    0.30140    0.01560    1.000
    H7       H        0.17390    0.88910    0.36610    1.000
    H8       H        0.20400    0.89100    0.63530    1.000
    H9       H        0.38270    0.19860    0.51560    1.000
    H10      H        0.32610    0.38910    0.13390    1.000
    H11      H        0.29600    0.39100    0.86470    1.000
    H12      H        0.11730    0.69860    0.98440    1.000
    C1       C        0.69160    0.86300    0.65488    1.000
    C2       C        0.72030    0.94150    0.57306    1.000
    C3       C        0.79580    0.06870    0.57844    1.000
    C4       C        0.82540    0.13200    0.49911    1.000
    C5       C        0.91120    0.26790    0.50097    1.000
    C6       C        0.77370    0.06720    0.41737    1.000
    C7       C        0.67000    0.88600    0.48792    1.000
    C8       C        0.45730    0.46820    0.53867    1.000
    C9       C        0.80840    0.36300    0.84512    1.000
    C10      C        0.77970    0.44150    0.92694    1.000
    C11      C        0.70420    0.56870    0.92156    1.000
    C12      C        0.67460    0.63200    0.00089    1.000
    C13      C        0.58880    0.76790    0.99903    1.000
    C14      C        0.72630    0.56720    0.08263    1.000
    C15      C        0.83000    0.38600    0.01208    1.000
    C16      C        0.04270    0.96820    0.96133    1.000
    C17      C        0.30840    0.13700    0.34512    1.000
    C18      C        0.27970    0.05850    0.42694    1.000
    C19      C        0.20420    0.93130    0.42156    1.000
    C20      C        0.17460    0.86800    0.50089    1.000
    C21      C        0.08880    0.73210    0.49903    1.000
    C22      C        0.22630    0.93280    0.58263    1.000
    C23      C        0.33000    0.11400    0.51208    1.000
    C24      C        0.54270    0.53180    0.46133    1.000
    C25      C        0.19160    0.63700    0.15488    1.000
    C26      C        0.22030    0.55850    0.07306    1.000
    C27      C        0.29580    0.43130    0.07844    1.000
    C28      C        0.32540    0.36800    0.99911    1.000
    C29      C        0.41120    0.23210    0.00097    1.000
    C30      C        0.27370    0.43280    0.91737    1.000
    C31      C        0.17000    0.61400    0.98792    1.000
    C32      C        0.95730    0.03180    0.03867    1.000
    N1       N        0.69260    0.94650    0.41098    1.000
    N2       N        0.80740    0.44650    0.08902    1.000
    N3       N        0.30740    0.05350    0.58902    1.000
    N4       N        0.19260    0.55350    0.91098    1.000
    O1       O        0.66430    0.73741    0.64542    1.000
    O2       O        0.69610    0.92370    0.72829    1.000
    O3       O        0.91410    0.33680    0.57129    1.000
    O4       O        0.97450    0.30380    0.43276    1.000
    O5       O        0.55240    0.44930    0.61227    1.000
    O6       O        0.29680    0.43930    0.52049    1.000
    O7       O        0.83570    0.23741    0.85458    1.000
    O8       O        0.80390    0.42370    0.77171    1.000
    O9       O        0.58590    0.83680    0.92871    1.000
    O10      O        0.52550    0.80380    0.06724    1.000
    O11      O        0.94760    0.94930    0.88773    1.000
    O12      O        0.20320    0.93930    0.97951    1.000
    O13      O        0.33570    0.26259    0.35458    1.000
    O14      O        0.30390    0.07630    0.27171    1.000
    O15      O        0.08590    0.66320    0.42871    1.000
    O16      O        0.02550    0.69620    0.56724    1.000
    O17      O        0.44760    0.55070    0.38773    1.000
    O18      O        0.70320    0.56070    0.47951    1.000
    O19      O        0.16430    0.76259    0.14542    1.000
    O20      O        0.19610    0.57630    0.22829    1.000
    O21      O        0.41410    0.16320    0.07129    1.000
    O22      O        0.47450    0.19620    0.93276    1.000
    O23      O        0.05240    0.05070    0.11227    1.000
    O24      O        0.79680    0.06070    0.02049    1.000
