# CIF file generated by openbabel 3.1.0, see https://openbabel.org
data_I
_chemical_name_common 'image0'
_cell_length_a 17.454
_cell_length_b 13.62
_cell_length_c 19.539
_cell_angle_alpha 90
_cell_angle_beta 94.064
_cell_angle_gamma 90
_space_group_name_H-M_alt 'P 1'
_space_group_name_Hall 'P 1'
loop_
    _symmetry_equiv_pos_as_xyz
    x,y,z
loop_
    _atom_site_label
    _atom_site_type_symbol
    _atom_site_fract_x
    _atom_site_fract_y
    _atom_site_fract_z
    _atom_site_occupancy
    Tb1      Tb       0.38744    0.98420    0.95177    1.000
    Tb2      Tb       0.88916    0.53258    0.03414    1.000
    N1       N        0.38770    0.30750    0.85730    1.000
    N2       N        0.91360    0.16510    0.17250    1.000
    N3       N        0.08990    0.71140    0.22460    1.000
    O1       O        0.45240    0.83380    0.93900    1.000
    O2       O        0.56340    0.88160    0.98860    1.000
    O3       O        0.78760    0.65170    0.99460    1.000
    O4       O        0.76690    0.49890    0.96760    1.000
    O5       O        0.28390    0.86840    0.97290    1.000
    O6       O        0.26620    0.02120    0.00160    1.000
    O7       O        0.97120    0.66590    0.04030    1.000
    O8       O        0.08340    0.62240    0.99980    1.000
    O9       O        0.41260    0.92590    0.06300    1.000
    O10      O        0.52080    0.97000    0.12130    1.000
    O11      O        0.52840    0.98280    0.37210    1.000
    O12      O        0.42270    0.94880    0.42420    1.000
    C1       C        0.52240    0.81940    0.95850    1.000
    C2       C        0.74320    0.57940    0.97390    1.000
    C3       C        0.55460    0.72160    0.94400    1.000
    C4       C        0.63120    0.70260    0.96230    1.000
    H1       H        0.66240    0.74980    0.98450    1.000
    C5       C        0.66210    0.60500    0.94540    1.000
    C6       C        0.61320    0.53470    0.92410    1.000
    H2       H        0.63260    0.47230    0.91710    1.000
    C7       C        0.53510    0.54930    0.91200    1.000
    C8       C        0.50720    0.64490    0.92160    1.000
    H3       H        0.45510    0.65690    0.91250    1.000
    C9       C        0.48290    0.47080    0.88950    1.000
    C10      C        0.51070    0.37940    0.86650    1.000
    H4       H        0.56320    0.37010    0.86380    1.000
    C11      C        0.46050    0.30460    0.84840    1.000
    H5       H        0.47990    0.24860    0.82860    1.000
    C12      C        0.36140    0.39000    0.86840    1.000
    H6       H        0.30840    0.39860    0.86320    1.000
    C13      C        0.40690    0.47120    0.88860    1.000
    H7       H        0.38270    0.52820    0.90200    1.000
    C14      C        0.24370    0.93160    0.99780    1.000
    C15      C        0.03960    0.68490    0.02750    1.000
    C16      C        0.16770    0.90690    0.02330    1.000
    C17      C        0.13940    0.81040    0.01790    1.000
    H8       H        0.17050    0.76270    0.99990    1.000
    C18      C        0.06790    0.78230    0.03760    1.000
    C19      C        0.02590    0.85280    0.07130    1.000
    H9       H        0.97870    0.83540    0.08700    1.000
    C20      C        0.05330    0.95030    0.08240    1.000
    C21      C        0.12730    0.97320    0.06030    1.000
    H10      H        0.14880    0.03420    0.07100    1.000
    C22      C        0.01100    0.02380    0.12070    1.000
    C23      C        0.94550    0.00360    0.14840    1.000
    H11      H        0.92960    0.93860    0.14990    1.000
    C24      C        0.89890    0.07660    0.17580    1.000
    H12      H        0.85540    0.05720    0.19710    1.000
    C25      C        0.97410    0.18780    0.14100    1.000
    H13      H        0.98610    0.25360    0.13490    1.000
    C26      C        0.01940    0.11930    0.11710    1.000
    H14      H        0.06190    0.14160    0.09550    1.000
    C27      C        0.45440    0.94030    0.11910    1.000
    C28      C        0.46280    0.95070    0.37690    1.000
    C29      C        0.41910    0.91530    0.18150    1.000
    C30      C        0.45360    0.94370    0.24350    1.000
    H15      H        0.50040    0.97660    0.24520    1.000
    C31      C        0.41890    0.92360    0.30420    1.000
    C32      C        0.34940    0.88030    0.30180    1.000
    H16      H        0.32620    0.87100    0.34270    1.000
    C33      C        0.31340    0.85070    0.24480    1.000
    C34      C        0.34730    0.87100    0.18110    1.000
    H17      H        0.32110    0.85430    0.13970    1.000
    C35      C        0.23280    0.80350    0.23900    1.000
    C36      C        0.17180    0.83920    0.27300    1.000
    H18      H        0.17850    0.89430    0.30100    1.000
    C37      C        0.10090    0.79350    0.26580    1.000
    H19      H        0.06020    0.81830    0.28880    1.000
    C38      C        0.15070    0.67550    0.19000    1.000
    H20      H        0.14400    0.62050    0.16210    1.000
    C39      C        0.22130    0.72170    0.19700    1.000
    H21      H        0.26160    0.69770    0.17330    1.000
    C40      C        0.23330    0.73890    0.29400    1.000
    C41      C        0.16940    0.68200    0.30550    1.000
    C42      C        0.10370    0.75500    0.20650    1.000
    C43      C        0.16760    0.81200    0.19510    1.000
    H22      H        0.27730    0.73340    0.32360    1.000
    H23      H        0.17030    0.63940    0.34250    1.000
    H24      H        0.05980    0.76090    0.17680    1.000
    H25      H        0.16670    0.85470    0.15810    1.000
    N4       N        0.10430    0.69100    0.26140    1.000
    Tb3      Tb       0.11256    0.48420    0.54823    1.000
    Tb4      Tb       0.61084    0.03258    0.46586    1.000
    N5       N        0.11230    0.80750    0.64270    1.000
    N6       N        0.58640    0.66510    0.32750    1.000
    N7       N        0.41010    0.21140    0.27540    1.000
    O13      O        0.04760    0.33380    0.56100    1.000
    O14      O        0.93660    0.38160    0.51140    1.000
    O15      O        0.71240    0.15170    0.50540    1.000
    O16      O        0.73310    0.99890    0.53240    1.000
    O17      O        0.21610    0.36840    0.52710    1.000
    O18      O        0.23380    0.52120    0.49840    1.000
    O19      O        0.52880    0.16590    0.45970    1.000
    O20      O        0.41660    0.12240    0.50020    1.000
    O21      O        0.08740    0.42590    0.43700    1.000
    O22      O        0.97920    0.47000    0.37870    1.000
    O23      O        0.97160    0.48280    0.12790    1.000
    O24      O        0.07730    0.44880    0.07580    1.000
    C44      C        0.97760    0.31940    0.54150    1.000
    C45      C        0.75680    0.07940    0.52610    1.000
    C46      C        0.94540    0.22160    0.55600    1.000
    C47      C        0.86880    0.20260    0.53770    1.000
    H26      H        0.83760    0.24980    0.51550    1.000
    C48      C        0.83790    0.10500    0.55460    1.000
    C49      C        0.88680    0.03470    0.57590    1.000
    H27      H        0.86740    0.97230    0.58290    1.000
    C50      C        0.96490    0.04930    0.58800    1.000
    C51      C        0.99280    0.14490    0.57840    1.000
    H28      H        0.04490    0.15690    0.58750    1.000
    C52      C        0.01710    0.97080    0.61050    1.000
    C53      C        0.98930    0.87940    0.63350    1.000
    H29      H        0.93680    0.87010    0.63620    1.000
    C54      C        0.03950    0.80460    0.65160    1.000
    H30      H        0.02010    0.74860    0.67140    1.000
    C55      C        0.13860    0.89000    0.63160    1.000
    H31      H        0.19160    0.89860    0.63680    1.000
    C56      C        0.09310    0.97120    0.61140    1.000
    H32      H        0.11730    0.02820    0.59800    1.000
    C57      C        0.25630    0.43160    0.50220    1.000
    C58      C        0.46040    0.18490    0.47250    1.000
    C59      C        0.33230    0.40690    0.47670    1.000
    C60      C        0.36060    0.31040    0.48210    1.000
    H33      H        0.32950    0.26270    0.50010    1.000
    C61      C        0.43210    0.28230    0.46240    1.000
    C62      C        0.47410    0.35280    0.42870    1.000
    H34      H        0.52130    0.33540    0.41300    1.000
    C63      C        0.44670    0.45030    0.41760    1.000
    C64      C        0.37270    0.47320    0.43970    1.000
    H35      H        0.35120    0.53420    0.42900    1.000
    C65      C        0.48900    0.52380    0.37930    1.000
    C66      C        0.55450    0.50360    0.35160    1.000
    H36      H        0.57040    0.43860    0.35010    1.000
    C67      C        0.60110    0.57660    0.32420    1.000
    H37      H        0.64460    0.55720    0.30290    1.000
    C68      C        0.52590    0.68780    0.35900    1.000
    H38      H        0.51390    0.75360    0.36510    1.000
    C69      C        0.48060    0.61930    0.38290    1.000
    H39      H        0.43810    0.64160    0.40450    1.000
    C70      C        0.04560    0.44030    0.38090    1.000
    C71      C        0.03720    0.45070    0.12310    1.000
    C72      C        0.08090    0.41530    0.31850    1.000
    C73      C        0.04640    0.44370    0.25650    1.000
    H40      H        0.99960    0.47660    0.25480    1.000
    C74      C        0.08110    0.42360    0.19580    1.000
    C75      C        0.15060    0.38030    0.19820    1.000
    H41      H        0.17380    0.37100    0.15730    1.000
    C76      C        0.18660    0.35070    0.25520    1.000
    C77      C        0.15270    0.37100    0.31890    1.000
    H42      H        0.17890    0.35430    0.36030    1.000
    C78      C        0.26720    0.30350    0.26100    1.000
    C79      C        0.32820    0.33920    0.22700    1.000
    H43      H        0.32150    0.39430    0.19900    1.000
    C80      C        0.39910    0.29350    0.23420    1.000
    H44      H        0.43980    0.31830    0.21120    1.000
    C81      C        0.34930    0.17550    0.31000    1.000
    H45      H        0.35600    0.12050    0.33790    1.000
    C82      C        0.27870    0.22170    0.30300    1.000
    H46      H        0.23840    0.19770    0.32670    1.000
    C83      C        0.26670    0.23890    0.20600    1.000
    C84      C        0.33060    0.18200    0.19450    1.000
    C85      C        0.39630    0.25500    0.29350    1.000
    C86      C        0.33240    0.31200    0.30490    1.000
    H47      H        0.22270    0.23340    0.17640    1.000
    H48      H        0.32970    0.13940    0.15750    1.000
    H49      H        0.44020    0.26090    0.32320    1.000
    H50      H        0.33330    0.35470    0.34190    1.000
    N8       N        0.39570    0.19100    0.23860    1.000
    Tb5      Tb       0.61256    0.01580    0.04823    1.000
    Tb6      Tb       0.11084    0.46742    0.96586    1.000
    N9       N        0.61230    0.69250    0.14270    1.000
    N10      N        0.08640    0.83490    0.82750    1.000
    N11      N        0.91010    0.28860    0.77540    1.000
    O25      O        0.54760    0.16620    0.06100    1.000
    O26      O        0.43660    0.11840    0.01140    1.000
    O27      O        0.21240    0.34830    0.00540    1.000
    O28      O        0.23310    0.50110    0.03240    1.000
    O29      O        0.71610    0.13160    0.02710    1.000
    O30      O        0.73380    0.97880    0.99840    1.000
    O31      O        0.02880    0.33410    0.95970    1.000
    O32      O        0.91660    0.37760    0.00020    1.000
    O33      O        0.58740    0.07410    0.93700    1.000
    O34      O        0.47920    0.03000    0.87870    1.000
    O35      O        0.47160    0.01720    0.62790    1.000
    O36      O        0.57730    0.05120    0.57580    1.000
    C87      C        0.47760    0.18060    0.04150    1.000
    C88      C        0.25680    0.42060    0.02610    1.000
    C89      C        0.44540    0.27840    0.05600    1.000
    C90      C        0.36880    0.29740    0.03770    1.000
    H51      H        0.33760    0.25020    0.01550    1.000
    C91      C        0.33790    0.39500    0.05460    1.000
    C92      C        0.38680    0.46530    0.07590    1.000
    H52      H        0.36740    0.52770    0.08290    1.000
    C93      C        0.46490    0.45070    0.08800    1.000
    C94      C        0.49280    0.35510    0.07840    1.000
    H53      H        0.54490    0.34310    0.08750    1.000
    C95      C        0.51710    0.52920    0.11050    1.000
    C96      C        0.48930    0.62060    0.13350    1.000
    H54      H        0.43680    0.62990    0.13620    1.000
    C97      C        0.53950    0.69540    0.15160    1.000
    H55      H        0.52010    0.75140    0.17140    1.000
    C98      C        0.63860    0.61000    0.13160    1.000
    H56      H        0.69160    0.60140    0.13680    1.000
    C99      C        0.59310    0.52880    0.11140    1.000
    H57      H        0.61730    0.47180    0.09800    1.000
    C100     C        0.75630    0.06840    0.00220    1.000
    C101     C        0.96040    0.31510    0.97250    1.000
    C102     C        0.83230    0.09310    0.97670    1.000
    C103     C        0.86060    0.18960    0.98210    1.000
    H58      H        0.82950    0.23730    0.00010    1.000
    C104     C        0.93210    0.21770    0.96240    1.000
    C105     C        0.97410    0.14720    0.92870    1.000
    H59      H        0.02130    0.16460    0.91300    1.000
    C106     C        0.94670    0.04970    0.91760    1.000
    C107     C        0.87270    0.02680    0.93970    1.000
    H60      H        0.85120    0.96580    0.92900    1.000
    C108     C        0.98900    0.97620    0.87930    1.000
    C109     C        0.05450    0.99640    0.85160    1.000
    H61      H        0.07040    0.06140    0.85010    1.000
    C110     C        0.10110    0.92340    0.82420    1.000
    H62      H        0.14460    0.94280    0.80290    1.000
    C111     C        0.02590    0.81220    0.85900    1.000
    H63      H        0.01390    0.74640    0.86510    1.000
    C112     C        0.98060    0.88070    0.88290    1.000
    H64      H        0.93810    0.85840    0.90450    1.000
    C113     C        0.54560    0.05970    0.88090    1.000
    C114     C        0.53720    0.04930    0.62310    1.000
    C115     C        0.58090    0.08470    0.81850    1.000
    C116     C        0.54640    0.05630    0.75650    1.000
    H65      H        0.49960    0.02340    0.75480    1.000
    C117     C        0.58110    0.07640    0.69580    1.000
    C118     C        0.65060    0.11970    0.69820    1.000
    H66      H        0.67380    0.12900    0.65730    1.000
    C119     C        0.68660    0.14930    0.75520    1.000
    C120     C        0.65270    0.12900    0.81890    1.000
    H67      H        0.67890    0.14570    0.86030    1.000
    C121     C        0.76720    0.19650    0.76100    1.000
    C122     C        0.82820    0.16080    0.72700    1.000
    H68      H        0.82150    0.10570    0.69900    1.000
    C123     C        0.89910    0.20650    0.73420    1.000
    H69      H        0.93980    0.18170    0.71120    1.000
    C124     C        0.84930    0.32450    0.81000    1.000
    H70      H        0.85600    0.37950    0.83790    1.000
    C125     C        0.77870    0.27830    0.80300    1.000
    H71      H        0.73840    0.30230    0.82670    1.000
    C126     C        0.76670    0.26110    0.70600    1.000
    C127     C        0.83060    0.31800    0.69450    1.000
    C128     C        0.89630    0.24500    0.79350    1.000
    C129     C        0.83240    0.18800    0.80490    1.000
    H72      H        0.72270    0.26660    0.67640    1.000
    H73      H        0.82970    0.36060    0.65750    1.000
    H74      H        0.94020    0.23910    0.82320    1.000
    H75      H        0.83330    0.14530    0.84190    1.000
    N12      N        0.89570    0.30900    0.73860    1.000
    Tb7      Tb       0.88744    0.51580    0.45177    1.000
    Tb8      Tb       0.38916    0.96742    0.53414    1.000
    N13      N        0.88770    0.19250    0.35730    1.000
    N14      N        0.41360    0.33490    0.67250    1.000
    N15      N        0.58990    0.78860    0.72460    1.000
    O37      O        0.95240    0.66620    0.43900    1.000
    O38      O        0.06340    0.61840    0.48860    1.000
    O39      O        0.28760    0.84830    0.49460    1.000
    O40      O        0.26690    0.00110    0.46760    1.000
    O41      O        0.78390    0.63160    0.47290    1.000
    O42      O        0.76620    0.47880    0.50160    1.000
    O43      O        0.47120    0.83410    0.54030    1.000
    O44      O        0.58340    0.87760    0.49980    1.000
    O45      O        0.91260    0.57410    0.56300    1.000
    O46      O        0.02080    0.53000    0.62130    1.000
    O47      O        0.02840    0.51720    0.87210    1.000
    O48      O        0.92270    0.55120    0.92420    1.000
    C130     C        0.02240    0.68060    0.45850    1.000
    C131     C        0.24320    0.92060    0.47390    1.000
    C132     C        0.05460    0.77840    0.44400    1.000
    C133     C        0.13120    0.79740    0.46230    1.000
    H76      H        0.16240    0.75020    0.48450    1.000
    C134     C        0.16210    0.89500    0.44540    1.000
    C135     C        0.11320    0.96530    0.42410    1.000
    H77      H        0.13260    0.02770    0.41710    1.000
    C136     C        0.03510    0.95070    0.41200    1.000
    C137     C        0.00720    0.85510    0.42160    1.000
    H78      H        0.95510    0.84310    0.41250    1.000
    C138     C        0.98290    0.02920    0.38950    1.000
    C139     C        0.01070    0.12060    0.36650    1.000
    H79      H        0.06320    0.12990    0.36380    1.000
    C140     C        0.96050    0.19540    0.34840    1.000
    H80      H        0.97990    0.25140    0.32860    1.000
    C141     C        0.86140    0.11000    0.36840    1.000
    H81      H        0.80840    0.10140    0.36320    1.000
    C142     C        0.90690    0.02880    0.38860    1.000
    H82      H        0.88270    0.97180    0.40200    1.000
    C143     C        0.74370    0.56840    0.49780    1.000
    C144     C        0.53960    0.81510    0.52750    1.000
    C145     C        0.66770    0.59310    0.52330    1.000
    C146     C        0.63940    0.68960    0.51790    1.000
    H83      H        0.67050    0.73730    0.49990    1.000
    C147     C        0.56790    0.71770    0.53760    1.000
    C148     C        0.52590    0.64720    0.57130    1.000
    H84      H        0.47870    0.66460    0.58700    1.000
    C149     C        0.55330    0.54970    0.58240    1.000
    C150     C        0.62730    0.52680    0.56030    1.000
    H85      H        0.64880    0.46580    0.57100    1.000
    C151     C        0.51100    0.47620    0.62070    1.000
    C152     C        0.44550    0.49640    0.64840    1.000
    H86      H        0.42960    0.56140    0.64990    1.000
    C153     C        0.39890    0.42340    0.67580    1.000
    H87      H        0.35540    0.44280    0.69710    1.000
    C154     C        0.47410    0.31220    0.64100    1.000
    H88      H        0.48610    0.24640    0.63490    1.000
    C155     C        0.51940    0.38070    0.61710    1.000
    H89      H        0.56190    0.35840    0.59550    1.000
    C156     C        0.95440    0.55970    0.61910    1.000
    C157     C        0.96280    0.54930    0.87690    1.000
    C158     C        0.91910    0.58470    0.68150    1.000
    C159     C        0.95360    0.55630    0.74350    1.000
    H90      H        0.00040    0.52340    0.74520    1.000
    C160     C        0.91890    0.57640    0.80420    1.000
    C161     C        0.84940    0.61970    0.80180    1.000
    H91      H        0.82620    0.62900    0.84270    1.000
    C162     C        0.81340    0.64930    0.74480    1.000
    C163     C        0.84730    0.62900    0.68110    1.000
    H92      H        0.82110    0.64570    0.63970    1.000
    C164     C        0.73280    0.69650    0.73900    1.000
    C165     C        0.67180    0.66080    0.77300    1.000
    H93      H        0.67850    0.60570    0.80100    1.000
    C166     C        0.60090    0.70650    0.76580    1.000
    H94      H        0.56020    0.68170    0.78880    1.000
    C167     C        0.65070    0.82450    0.69000    1.000
    H95      H        0.64400    0.87950    0.66210    1.000
    C168     C        0.72130    0.77830    0.69700    1.000
    H96      H        0.76160    0.80230    0.67330    1.000
    C169     C        0.73330    0.76110    0.79400    1.000
    C170     C        0.66940    0.81800    0.80550    1.000
    C171     C        0.60370    0.74500    0.70650    1.000
    C172     C        0.66760    0.68800    0.69510    1.000
    H97      H        0.77730    0.76660    0.82360    1.000
    H98      H        0.67030    0.86060    0.84250    1.000
    H99      H        0.55980    0.73910    0.67680    1.000
    H100     H        0.66670    0.64530    0.65810    1.000
    N16      N        0.60430    0.80900    0.76140    1.000
