# CIF file generated by openbabel 3.1.0, see https://openbabel.org
data_I
_chemical_name_common 'image0'
_cell_length_a 14.3893
_cell_length_b 14.7147
_cell_length_c 15.3534
_cell_angle_alpha 98.306
_cell_angle_beta 93.876
_cell_angle_gamma 96.296
_space_group_name_H-M_alt 'P 1'
_space_group_name_Hall 'P 1'
loop_
    _symmetry_equiv_pos_as_xyz
    x,y,z
loop_
    _atom_site_label
    _atom_site_type_symbol
    _atom_site_fract_x
    _atom_site_fract_y
    _atom_site_fract_z
    _atom_site_occupancy
    U1       U        0.71786    0.97781    0.62443    1.000
    U2       U        0.69991    0.97125    0.88365    1.000
    U3       U        0.92651    0.92539    0.24699    1.000
    U4       U        0.60350    0.60731    0.74385    1.000
    U5       U        0.53466    0.75860    0.29560    1.000
    P1       P        0.60680    0.41150    0.87420    1.000
    P2       P        0.83780    0.12724    0.82960    1.000
    P3       P        0.53680    0.76810    0.92640    1.000
    P4       P        0.27600    0.00530    0.87743    1.000
    P5       P        0.44010    0.15973    0.31756    1.000
    P6       P        0.72782    0.94406    0.38256    1.000
    P7       P        0.92290    0.14030    0.57830    1.000
    P8       P        0.65290    0.38100    0.61820    1.000
    O1       O        0.75830    0.06560    0.76790    1.000
    O2       O        0.83810    0.07830    0.59480    1.000
    O3       O        0.72120    0.92830    0.47730    1.000
    O4       O        0.82490    0.09610    0.91930    1.000
    O5       O        0.93270    0.12220    0.79900    1.000
    O6       O        0.59840    0.85330    0.91290    1.000
    O7       O        0.56020    0.67680    0.88330    1.000
    O8       O        0.54200    0.76870    0.03030    1.000
    H1       H        0.56910    0.81840    0.05560    1.000
    O9       O        0.83030    0.95450    0.36350    1.000
    O10      O        0.66770    0.86750    0.32150    1.000
    O11      O        0.87860    0.28330    0.37100    1.000
    H2       H        0.91270    0.33230    0.37470    1.000
    O12      O        0.25140    0.03780    0.97100    1.000
    O13      O        0.19660    0.00420    0.80920    1.000
    O14      O        0.36600    0.06530    0.85600    1.000
    H3       H        0.38060    0.10890    0.89610    1.000
    O15      O        0.65300    0.47940    0.65790    1.000
    O16      O        0.61110    0.50230    0.84080    1.000
    O17      O        0.52870    0.33910    0.83690    1.000
    O18      O        0.59790    0.42590    0.97620    1.000
    H4       H        0.61660    0.47980    0.99720    1.000
    O19      O        0.60910    0.30760    0.66700    1.000
    O20      O        0.60440    0.36380    0.52340    1.000
    H5       H        0.61650    0.40970    0.49970    1.000
    O21      O        0.98520    0.57910    0.61390    1.000
    O22      O        0.09540    0.48530    0.62080    1.000
    O23      O        0.19680    0.56980    0.85110    1.000
    H6       H        0.14810    0.53420    0.84680    1.000
    O24      O        0.09410    0.67270    0.84340    1.000
    O25      O        0.94580    0.10960    0.47960    1.000
    H7       H        0.98270    0.14990    0.46470    1.000
    O26      O        0.01010    0.14180    0.63660    1.000
    O27      O        0.04390    0.44780    0.83500    1.000
    O28      O        0.94780    0.55710    0.83820    1.000
    H8       H        0.99630    0.59270    0.84100    1.000
    O29      O        0.38610    0.07410    0.25890    1.000
    O30      O        0.43410    0.24640    0.27890    1.000
    O31      O        0.39830    0.16100    0.40650    1.000
    O32      O        0.76900    0.37580    0.35980    1.000
    C1       C        0.71750    0.36890    0.85910    1.000
    C2       C        0.72840    0.27460    0.85070    1.000
    H9       H        0.67740    0.23090    0.85390    1.000
    C3       C        0.81780    0.24690    0.83740    1.000
    C4       C        0.89380    0.31170    0.83570    1.000
    H10      H        0.95220    0.29260    0.82600    1.000
    C5       C        0.88420    0.40570    0.84830    1.000
    C6       C        0.79440    0.43620    0.85990    1.000
    H11      H        0.78720    0.49880    0.86780    1.000
    C7       C        0.96930    0.47120    0.84850    1.000
    C8       C        0.41750    0.78400    0.89580    1.000
    C9       C        0.34680    0.71050    0.88090    1.000
    H12      H        0.36040    0.65040    0.88270    1.000
    C10      C        0.25620    0.72820    0.86330    1.000
    C11      C        0.23560    0.81660    0.85580    1.000
    H13      H        0.17460    0.82680    0.83970    1.000
    C12      C        0.30630    0.88900    0.87250    1.000
    C13      C        0.39780    0.87330    0.88850    1.000
    H14      H        0.44610    0.92180    0.89440    1.000
    C14      C        0.17720    0.65280    0.85570    1.000
    C15      C        0.56190    0.14640    0.33430    1.000
    C16      C        0.59110    0.06050    0.34900    1.000
    H15      H        0.54690    0.00890    0.34670    1.000
    C17      C        0.68620    0.05340    0.36710    1.000
    C18      C        0.75060    0.13040    0.36950    1.000
    H16      H        0.81430    0.12560    0.37920    1.000
    C19      C        0.72210    0.21410    0.35780    1.000
    C20      C        0.62770    0.22390    0.34140    1.000
    H17      H        0.60900    0.28140    0.33520    1.000
    C21      C        0.79340    0.29800    0.36320    1.000
    C22      C        0.89200    0.25470    0.58780    1.000
    C23      C        0.79810    0.27220    0.59360    1.000
    H18      H        0.75110    0.22250    0.58780    1.000
    C24      C        0.77400    0.36140    0.60780    1.000
    C25      C        0.84170    0.43500    0.61310    1.000
    H19      H        0.82560    0.49490    0.62050    1.000
    C26      C        0.93590    0.41960    0.60740    1.000
    C27      C        0.96090    0.32990    0.59340    1.000
    H20      H        0.02320    0.32060    0.58790    1.000
    C28      C        0.01180    0.50010    0.61700    1.000
    U6       U        0.28214    0.02219    0.37557    1.000
    U7       U        0.30009    0.02875    0.11635    1.000
    U8       U        0.07349    0.07461    0.75301    1.000
    U9       U        0.39650    0.39269    0.25615    1.000
    U10      U        0.46534    0.24140    0.70440    1.000
    P9       P        0.39320    0.58850    0.12580    1.000
    P10      P        0.16220    0.87276    0.17040    1.000
    P11      P        0.46320    0.23190    0.07360    1.000
    P12      P        0.72400    0.99470    0.12257    1.000
    P13      P        0.55990    0.84027    0.68244    1.000
    P14      P        0.27218    0.05594    0.61744    1.000
    P15      P        0.07710    0.85970    0.42170    1.000
    P16      P        0.34710    0.61900    0.38180    1.000
    O33      O        0.24170    0.93440    0.23210    1.000
    O34      O        0.16190    0.92170    0.40520    1.000
    O35      O        0.27880    0.07170    0.52270    1.000
    O36      O        0.17510    0.90390    0.08070    1.000
    O37      O        0.06730    0.87780    0.20100    1.000
    O38      O        0.40160    0.14670    0.08710    1.000
    O39      O        0.43980    0.32320    0.11670    1.000
    O40      O        0.45800    0.23130    0.96970    1.000
    H21      H        0.43090    0.18160    0.94440    1.000
    O41      O        0.16970    0.04550    0.63650    1.000
    O42      O        0.33230    0.13250    0.67850    1.000
    O43      O        0.12140    0.71670    0.62900    1.000
    H22      H        0.08730    0.66770    0.62530    1.000
    O44      O        0.74860    0.96220    0.02900    1.000
    O45      O        0.80340    0.99580    0.19080    1.000
    O46      O        0.63400    0.93470    0.14400    1.000
    H23      H        0.61940    0.89110    0.10390    1.000
    O47      O        0.34700    0.52060    0.34210    1.000
    O48      O        0.38890    0.49770    0.15920    1.000
    O49      O        0.47130    0.66090    0.16310    1.000
    O50      O        0.40210    0.57410    0.02380    1.000
    H24      H        0.38340    0.52020    0.00280    1.000
    O51      O        0.39090    0.69240    0.33300    1.000
    O52      O        0.39560    0.63620    0.47660    1.000
    H25      H        0.38350    0.59030    0.50030    1.000
    O53      O        0.01480    0.42090    0.38610    1.000
    O54      O        0.90460    0.51470    0.37920    1.000
    O55      O        0.80320    0.43020    0.14890    1.000
    H26      H        0.85190    0.46580    0.15320    1.000
    O56      O        0.90590    0.32730    0.15660    1.000
    O57      O        0.05420    0.89040    0.52040    1.000
    H27      H        0.01730    0.85010    0.53530    1.000
    O58      O        0.98990    0.85820    0.36340    1.000
    O59      O        0.95610    0.55220    0.16500    1.000
    O60      O        0.05220    0.44290    0.16180    1.000
    H28      H        0.00370    0.40730    0.15900    1.000
    O61      O        0.61390    0.92590    0.74110    1.000
    O62      O        0.56590    0.75360    0.72110    1.000
    O63      O        0.60170    0.83900    0.59350    1.000
    O64      O        0.23100    0.62420    0.64020    1.000
    C29      C        0.28250    0.63110    0.14090    1.000
    C30      C        0.27160    0.72540    0.14930    1.000
    H29      H        0.32260    0.76910    0.14610    1.000
    C31      C        0.18220    0.75310    0.16260    1.000
    C32      C        0.10620    0.68830    0.16430    1.000
    H30      H        0.04780    0.70740    0.17400    1.000
    C33      C        0.11580    0.59430    0.15170    1.000
    C34      C        0.20560    0.56380    0.14010    1.000
    H31      H        0.21280    0.50120    0.13220    1.000
    C35      C        0.03070    0.52880    0.15150    1.000
    C36      C        0.58250    0.21600    0.10420    1.000
    C37      C        0.65320    0.28950    0.11910    1.000
    H32      H        0.63960    0.34960    0.11730    1.000
    C38      C        0.74380    0.27180    0.13670    1.000
    C39      C        0.76440    0.18340    0.14420    1.000
    H33      H        0.82540    0.17320    0.16030    1.000
    C40      C        0.69370    0.11100    0.12750    1.000
    C41      C        0.60220    0.12670    0.11150    1.000
    H34      H        0.55390    0.07820    0.10560    1.000
    C42      C        0.82280    0.34720    0.14430    1.000
    C43      C        0.43810    0.85360    0.66570    1.000
    C44      C        0.40890    0.93950    0.65100    1.000
    H35      H        0.45310    0.99110    0.65330    1.000
    C45      C        0.31380    0.94660    0.63290    1.000
    C46      C        0.24940    0.86960    0.63050    1.000
    H36      H        0.18570    0.87440    0.62080    1.000
    C47      C        0.27790    0.78590    0.64220    1.000
    C48      C        0.37230    0.77610    0.65860    1.000
    H37      H        0.39100    0.71860    0.66480    1.000
    C49      C        0.20660    0.70200    0.63680    1.000
    C50      C        0.10800    0.74530    0.41220    1.000
    C51      C        0.20190    0.72780    0.40640    1.000
    H38      H        0.24890    0.77750    0.41220    1.000
    C52      C        0.22600    0.63860    0.39220    1.000
    C53      C        0.15830    0.56500    0.38690    1.000
    H39      H        0.17440    0.50510    0.37950    1.000
    C54      C        0.06410    0.58040    0.39260    1.000
    C55      C        0.03910    0.67010    0.40660    1.000
    H40      H        0.97680    0.67940    0.41210    1.000
    C56      C        0.98820    0.49990    0.38300    1.000
