# CIF file generated by openbabel 3.1.0, see https://openbabel.org
data_I
_chemical_name_common 'image0'
_cell_length_a 17.3245
_cell_length_b 17.3245
_cell_length_c 33.9396
_cell_angle_alpha 90
_cell_angle_beta 90
_cell_angle_gamma 90
_space_group_name_H-M_alt 'P 1'
_space_group_name_Hall 'P 1'
loop_
    _symmetry_equiv_pos_as_xyz
    x,y,z
loop_
    _atom_site_label
    _atom_site_type_symbol
    _atom_site_fract_x
    _atom_site_fract_y
    _atom_site_fract_z
    _atom_site_occupancy
    Cu1      Cu       0.08513    0.50757    0.61521    1.000
    Cu2      Cu       0.15839    0.36418    0.56711    1.000
    Cu3      Cu       0.08297    0.51218    0.52200    1.000
    N1       N        0.12690    0.42450    0.64167    1.000
    N2       N        0.16040    0.36450    0.62230    1.000
    N3       N        0.37090    0.06670    0.99340    1.000
    N4       N        0.05070    0.59850    0.54945    1.000
    N5       N        0.05470    0.59720    0.59042    1.000
    N6       N        0.33770    0.12780    0.01240    1.000
    N7       N        0.29570    0.17090    0.91070    1.000
    O1       O        0.07080    0.28120    0.73421    1.000
    O2       O        0.89170    0.78490    0.56620    1.000
    N8       N        0.02220    0.79860    0.57230    1.000
    O3       O        0.15050    0.81280    0.58240    1.000
    O4       O        0.42140    0.18890    0.89630    1.000
    O5       O        0.16870    0.15500    0.92510    1.000
    C1       C        0.03640    0.67140    0.53780    1.000
    C2       C        0.00450    0.95920    0.57200    1.000
    C3       C        0.13550    0.41190    0.68060    1.000
    N9       N        0.19560    0.31120    0.72280    1.000
    O6       O        0.32230    0.34380    0.71210    1.000
    C4       C        0.35820    0.07330    0.95480    1.000
    C5       C        0.08920    0.84280    0.57660    1.000
    C6       C        0.19210    0.31600    0.64870    1.000
    C7       C        0.94660    0.82680    0.57000    1.000
    C8       C        0.27410    0.31710    0.73380    1.000
    C9       C        0.26160    0.24480    0.99660    1.000
    H1       H        0.20720    0.23520    0.99400    1.000
    H2       H        0.27610    0.28680    0.97970    1.000
    H3       H        0.27320    0.25780    0.02340    1.000
    C10      C        0.10400    0.46440    0.71050    1.000
    H4       H        0.09420    0.51390    0.69890    1.000
    H5       H        0.14050    0.47000    0.73160    1.000
    H6       H        0.05660    0.44360    0.72070    1.000
    C11      C        0.30570    0.17360    0.98500    1.000
    C12      C        0.03210    0.71670    0.57130    1.000
    C13      C        0.08040    0.92850    0.57370    1.000
    C14      C        0.31690    0.14120    0.94900    1.000
    C15      C        0.25510    0.23020    0.83620    1.000
    C16      C        0.29360    0.28550    0.77400    1.000
    C17      C        0.21780    0.17520    0.90190    1.000
    C18      C        0.04600    0.68750    0.64690    1.000
    H7       H        0.99440    0.69670    0.65600    1.000
    H8       H        0.07680    0.73280    0.65130    1.000
    H9       H        0.06780    0.64490    0.66110    1.000
    C19      C        0.93750    0.91280    0.57150    1.000
    C20      C        0.09980    0.23420    0.81240    1.000
    H10      H        0.04840    0.23500    0.80460    1.000
    C21      C        0.11940    0.20810    0.85050    1.000
    H11      H        0.08090    0.19330    0.86800    1.000
    C22      C        0.19680    0.20440    0.86190    1.000
    C23      C        0.04460    0.66910    0.60390    1.000
    C24      C        0.35440    0.19450    0.88650    1.000
    C25      C        0.33310    0.22980    0.84760    1.000
    C26      C        0.37000    0.28280    0.78530    1.000
    H12      H        0.40870    0.29860    0.76810    1.000
    C27      C        0.23640    0.24500    0.63720    1.000
    H13      H        0.21860    0.22700    0.61210    1.000
    H14      H        0.22850    0.20550    0.65660    1.000
    H15      H        0.29040    0.25710    0.63560    1.000
    C28      C        0.14220    0.97510    0.57280    1.000
    H16      H        0.19140    0.95360    0.57280    1.000
    C29      C        0.02760    0.69390    0.49630    1.000
    H17      H        0.05380    0.65730    0.47980    1.000
    H18      H        0.04940    0.74430    0.49240    1.000
    H19      H        0.97380    0.69490    0.48960    1.000
    C30      C        0.17530    0.34440    0.68540    1.000
    C31      C        0.23480    0.25730    0.79800    1.000
    C32      C        0.13570    0.28380    0.74660    1.000
    C33      C        0.15620    0.25850    0.78690    1.000
    C34      C        0.38870    0.25590    0.82350    1.000
    H20      H        0.43980    0.25620    0.83190    1.000
    C35      C        0.86560    0.94430    0.57180    1.000
    H21      H        0.82210    0.91280    0.57130    1.000
    C36      C        0.38900    0.01630    0.92560    1.000
    H22      H        0.42740    0.04080    0.90950    1.000
    H23      H        0.34770    0.99800    0.90930    1.000
    H24      H        0.41190    0.97360    0.93940    1.000
    Cu4      Cu       0.58513    0.00757    0.11521    1.000
    Cu5      Cu       0.65839    0.86418    0.06711    1.000
    Cu6      Cu       0.58297    0.01218    0.02200    1.000
    N10      N        0.62690    0.92450    0.14167    1.000
    N11      N        0.66040    0.86450    0.12230    1.000
    N12      N        0.87090    0.56670    0.49340    1.000
    N13      N        0.55070    0.09850    0.04945    1.000
    N14      N        0.55470    0.09720    0.09042    1.000
    N15      N        0.83770    0.62780    0.51240    1.000
    N16      N        0.79570    0.67090    0.41070    1.000
    O7       O        0.57080    0.78120    0.23421    1.000
    O8       O        0.39170    0.28490    0.06620    1.000
    N17      N        0.52220    0.29860    0.07230    1.000
    O9       O        0.65050    0.31280    0.08240    1.000
    O10      O        0.92140    0.68890    0.39630    1.000
    O11      O        0.66870    0.65500    0.42510    1.000
    C37      C        0.53640    0.17140    0.03780    1.000
    C38      C        0.50450    0.45920    0.07200    1.000
    C39      C        0.63550    0.91190    0.18060    1.000
    N18      N        0.69560    0.81120    0.22280    1.000
    O12      O        0.82230    0.84380    0.21210    1.000
    C40      C        0.85820    0.57330    0.45480    1.000
    C41      C        0.58920    0.34280    0.07660    1.000
    C42      C        0.69210    0.81600    0.14870    1.000
    C43      C        0.44660    0.32680    0.07000    1.000
    C44      C        0.77410    0.81710    0.23380    1.000
    C45      C        0.76160    0.74480    0.49660    1.000
    H25      H        0.70720    0.73520    0.49400    1.000
    H26      H        0.77610    0.78680    0.47970    1.000
    H27      H        0.77320    0.75780    0.52340    1.000
    C46      C        0.60400    0.96440    0.21050    1.000
    H28      H        0.59420    0.01390    0.19890    1.000
    H29      H        0.64050    0.97000    0.23160    1.000
    H30      H        0.55660    0.94360    0.22070    1.000
    C47      C        0.80570    0.67360    0.48500    1.000
    C48      C        0.53210    0.21670    0.07130    1.000
    C49      C        0.58040    0.42850    0.07370    1.000
    C50      C        0.81690    0.64120    0.44900    1.000
    C51      C        0.75510    0.73020    0.33620    1.000
    C52      C        0.79360    0.78550    0.27400    1.000
    C53      C        0.71780    0.67520    0.40190    1.000
    C54      C        0.54600    0.18750    0.14690    1.000
    H31      H        0.49440    0.19670    0.15600    1.000
    H32      H        0.57680    0.23280    0.15130    1.000
    H33      H        0.56780    0.14490    0.16110    1.000
    C55      C        0.43750    0.41280    0.07150    1.000
    C56      C        0.59980    0.73420    0.31240    1.000
    H34      H        0.54840    0.73500    0.30460    1.000
    C57      C        0.61940    0.70810    0.35050    1.000
    H35      H        0.58090    0.69330    0.36800    1.000
    C58      C        0.69680    0.70440    0.36190    1.000
    C59      C        0.54460    0.16910    0.10390    1.000
    C60      C        0.85440    0.69450    0.38650    1.000
    C61      C        0.83310    0.72980    0.34760    1.000
    C62      C        0.87000    0.78280    0.28530    1.000
    H36      H        0.90870    0.79860    0.26810    1.000
    C63      C        0.73640    0.74500    0.13720    1.000
    H37      H        0.71860    0.72700    0.11210    1.000
    H38      H        0.72850    0.70550    0.15660    1.000
    H39      H        0.79040    0.75710    0.13560    1.000
    C64      C        0.64220    0.47510    0.07280    1.000
    H40      H        0.69140    0.45360    0.07280    1.000
    C65      C        0.52760    0.19390    0.99630    1.000
    H41      H        0.55380    0.15730    0.97980    1.000
    H42      H        0.54940    0.24430    0.99240    1.000
    H43      H        0.47380    0.19490    0.98960    1.000
    C66      C        0.67530    0.84440    0.18540    1.000
    C67      C        0.73480    0.75730    0.29800    1.000
    C68      C        0.63570    0.78380    0.24660    1.000
    C69      C        0.65620    0.75850    0.28690    1.000
    C70      C        0.88870    0.75590    0.32350    1.000
    H44      H        0.93980    0.75620    0.33190    1.000
    C71      C        0.36560    0.44430    0.07180    1.000
    H45      H        0.32210    0.41280    0.07130    1.000
    C72      C        0.88900    0.51630    0.42560    1.000
    H46      H        0.92740    0.54080    0.40950    1.000
    H47      H        0.84770    0.49800    0.40930    1.000
    H48      H        0.91190    0.47360    0.43940    1.000
    Cu7      Cu       0.91487    0.49243    0.61521    1.000
    Cu8      Cu       0.84161    0.63582    0.56711    1.000
    Cu9      Cu       0.91703    0.48782    0.52200    1.000
    N19      N        0.87310    0.57550    0.64167    1.000
    N20      N        0.83960    0.63550    0.62230    1.000
    N21      N        0.62910    0.93330    0.99340    1.000
    N22      N        0.94930    0.40150    0.54945    1.000
    N23      N        0.94530    0.40280    0.59042    1.000
    N24      N        0.66230    0.87220    0.01240    1.000
    N25      N        0.70430    0.82910    0.91070    1.000
    O13      O        0.92920    0.71880    0.73421    1.000
    O14      O        0.10830    0.21510    0.56620    1.000
    N26      N        0.97780    0.20140    0.57230    1.000
    O15      O        0.84950    0.18720    0.58240    1.000
    O16      O        0.57860    0.81110    0.89630    1.000
    O17      O        0.83130    0.84500    0.92510    1.000
    C73      C        0.96360    0.32860    0.53780    1.000
    C74      C        0.99550    0.04080    0.57200    1.000
    C75      C        0.86450    0.58810    0.68060    1.000
    N27      N        0.80440    0.68880    0.72280    1.000
    O18      O        0.67770    0.65620    0.71210    1.000
    C76      C        0.64180    0.92670    0.95480    1.000
    C77      C        0.91080    0.15720    0.57660    1.000
    C78      C        0.80790    0.68400    0.64870    1.000
    C79      C        0.05340    0.17320    0.57000    1.000
    C80      C        0.72590    0.68290    0.73380    1.000
    C81      C        0.73840    0.75520    0.99660    1.000
    H49      H        0.79280    0.76480    0.99400    1.000
    H50      H        0.72390    0.71320    0.97970    1.000
    H51      H        0.72680    0.74220    0.02340    1.000
    C82      C        0.89600    0.53560    0.71050    1.000
    H52      H        0.90580    0.48610    0.69890    1.000
    H53      H        0.85950    0.53000    0.73160    1.000
    H54      H        0.94340    0.55640    0.72070    1.000
    C83      C        0.69430    0.82640    0.98500    1.000
    C84      C        0.96790    0.28330    0.57130    1.000
    C85      C        0.91960    0.07150    0.57370    1.000
    C86      C        0.68310    0.85880    0.94900    1.000
    C87      C        0.74490    0.76980    0.83620    1.000
    C88      C        0.70640    0.71450    0.77400    1.000
    C89      C        0.78220    0.82480    0.90190    1.000
    C90      C        0.95400    0.31250    0.64690    1.000
    H55      H        0.00560    0.30330    0.65600    1.000
    H56      H        0.92320    0.26720    0.65130    1.000
    H57      H        0.93220    0.35510    0.66110    1.000
    C91      C        0.06250    0.08720    0.57150    1.000
    C92      C        0.90020    0.76580    0.81240    1.000
    H58      H        0.95160    0.76500    0.80460    1.000
    C93      C        0.88060    0.79190    0.85050    1.000
    H59      H        0.91910    0.80670    0.86800    1.000
    C94      C        0.80320    0.79560    0.86190    1.000
    C95      C        0.95540    0.33090    0.60390    1.000
    C96      C        0.64560    0.80550    0.88650    1.000
    C97      C        0.66690    0.77020    0.84760    1.000
    C98      C        0.63000    0.71720    0.78530    1.000
    H60      H        0.59130    0.70140    0.76810    1.000
    C99      C        0.76360    0.75500    0.63720    1.000
    H61      H        0.78140    0.77300    0.61210    1.000
    H62      H        0.77150    0.79450    0.65660    1.000
    H63      H        0.70960    0.74290    0.63560    1.000
    C100     C        0.85780    0.02490    0.57280    1.000
    H64      H        0.80860    0.04640    0.57280    1.000
    C101     C        0.97240    0.30610    0.49630    1.000
    H65      H        0.94620    0.34270    0.47980    1.000
    H66      H        0.95060    0.25570    0.49240    1.000
    H67      H        0.02620    0.30510    0.48960    1.000
    C102     C        0.82470    0.65560    0.68540    1.000
    C103     C        0.76520    0.74270    0.79800    1.000
    C104     C        0.86430    0.71620    0.74660    1.000
    C105     C        0.84380    0.74150    0.78690    1.000
    C106     C        0.61130    0.74410    0.82350    1.000
    H68      H        0.56020    0.74380    0.83190    1.000
    C107     C        0.13440    0.05570    0.57180    1.000
    H69      H        0.17790    0.08720    0.57130    1.000
    C108     C        0.61100    0.98370    0.92560    1.000
    H70      H        0.57260    0.95920    0.90950    1.000
    H71      H        0.65230    0.00200    0.90930    1.000
    H72      H        0.58810    0.02640    0.93940    1.000
    Cu10     Cu       0.41487    0.99243    0.11521    1.000
    Cu11     Cu       0.34161    0.13582    0.06711    1.000
    Cu12     Cu       0.41703    0.98782    0.02200    1.000
    N28      N        0.37310    0.07550    0.14167    1.000
    N29      N        0.33960    0.13550    0.12230    1.000
    N30      N        0.12910    0.43330    0.49340    1.000
    N31      N        0.44930    0.90150    0.04945    1.000
    N32      N        0.44530    0.90280    0.09042    1.000
    N33      N        0.16230    0.37220    0.51240    1.000
    N34      N        0.20430    0.32910    0.41070    1.000
    O19      O        0.42920    0.21880    0.23421    1.000
    O20      O        0.60830    0.71510    0.06620    1.000
    N35      N        0.47780    0.70140    0.07230    1.000
    O21      O        0.34950    0.68720    0.08240    1.000
    O22      O        0.07860    0.31110    0.39630    1.000
    O23      O        0.33130    0.34500    0.42510    1.000
    C109     C        0.46360    0.82860    0.03780    1.000
    C110     C        0.49550    0.54080    0.07200    1.000
    C111     C        0.36450    0.08810    0.18060    1.000
    N36      N        0.30440    0.18880    0.22280    1.000
    O24      O        0.17770    0.15620    0.21210    1.000
    C112     C        0.14180    0.42670    0.45480    1.000
    C113     C        0.41080    0.65720    0.07660    1.000
    C114     C        0.30790    0.18400    0.14870    1.000
    C115     C        0.55340    0.67320    0.07000    1.000
    C116     C        0.22590    0.18290    0.23380    1.000
    C117     C        0.23840    0.25520    0.49660    1.000
    H73      H        0.29280    0.26480    0.49400    1.000
    H74      H        0.22390    0.21320    0.47970    1.000
    H75      H        0.22680    0.24220    0.52340    1.000
    C118     C        0.39600    0.03560    0.21050    1.000
    H76      H        0.40580    0.98610    0.19890    1.000
    H77      H        0.35950    0.03000    0.23160    1.000
    H78      H        0.44340    0.05640    0.22070    1.000
    C119     C        0.19430    0.32640    0.48500    1.000
    C120     C        0.46790    0.78330    0.07130    1.000
    C121     C        0.41960    0.57150    0.07370    1.000
    C122     C        0.18310    0.35880    0.44900    1.000
    C123     C        0.24490    0.26980    0.33620    1.000
    C124     C        0.20640    0.21450    0.27400    1.000
    C125     C        0.28220    0.32480    0.40190    1.000
    C126     C        0.45400    0.81250    0.14690    1.000
    H79      H        0.50560    0.80330    0.15600    1.000
    H80      H        0.42320    0.76720    0.15130    1.000
    H81      H        0.43220    0.85510    0.16110    1.000
    C127     C        0.56250    0.58720    0.07150    1.000
    C128     C        0.40020    0.26580    0.31240    1.000
    H82      H        0.45160    0.26500    0.30460    1.000
    C129     C        0.38060    0.29190    0.35050    1.000
    H83      H        0.41910    0.30670    0.36800    1.000
    C130     C        0.30320    0.29560    0.36190    1.000
    C131     C        0.45540    0.83090    0.10390    1.000
    C132     C        0.14560    0.30550    0.38650    1.000
    C133     C        0.16690    0.27020    0.34760    1.000
    C134     C        0.13000    0.21720    0.28530    1.000
    H84      H        0.09130    0.20140    0.26810    1.000
    C135     C        0.26360    0.25500    0.13720    1.000
    H85      H        0.28140    0.27300    0.11210    1.000
    H86      H        0.27150    0.29450    0.15660    1.000
    H87      H        0.20960    0.24290    0.13560    1.000
    C136     C        0.35780    0.52490    0.07280    1.000
    H88      H        0.30860    0.54640    0.07280    1.000
    C137     C        0.47240    0.80610    0.99630    1.000
    H89      H        0.44620    0.84270    0.97980    1.000
    H90      H        0.45060    0.75570    0.99240    1.000
    H91      H        0.52620    0.80510    0.98960    1.000
    C138     C        0.32470    0.15560    0.18540    1.000
    C139     C        0.26520    0.24270    0.29800    1.000
    C140     C        0.36430    0.21620    0.24660    1.000
    C141     C        0.34380    0.24150    0.28690    1.000
    C142     C        0.11130    0.24410    0.32350    1.000
    H92      H        0.06020    0.24380    0.33190    1.000
    C143     C        0.63440    0.55570    0.07180    1.000
    H93      H        0.67790    0.58720    0.07130    1.000
    C144     C        0.11100    0.48370    0.42560    1.000
    H94      H        0.07260    0.45920    0.40950    1.000
    H95      H        0.15230    0.50200    0.40930    1.000
    H96      H        0.08810    0.52640    0.43940    1.000
    Cu13     Cu       0.50757    0.91487    0.38479    1.000
    Cu14     Cu       0.36418    0.84161    0.43289    1.000
    Cu15     Cu       0.51218    0.91703    0.47800    1.000
    N37      N        0.42450    0.87310    0.35833    1.000
    N38      N        0.36450    0.83960    0.37770    1.000
    N39      N        0.06670    0.62910    0.00660    1.000
    N40      N        0.59850    0.94930    0.45055    1.000
    N41      N        0.59720    0.94530    0.40958    1.000
    N42      N        0.12780    0.66230    0.98760    1.000
    N43      N        0.17090    0.70430    0.08930    1.000
    O25      O        0.28120    0.92920    0.26579    1.000
    O26      O        0.78490    0.10830    0.43380    1.000
    N44      N        0.79860    0.97780    0.42770    1.000
    O27      O        0.81280    0.84950    0.41760    1.000
    O28      O        0.18890    0.57860    0.10370    1.000
    O29      O        0.15500    0.83130    0.07490    1.000
    C145     C        0.67140    0.96360    0.46220    1.000
    C146     C        0.95920    0.99550    0.42800    1.000
    C147     C        0.41190    0.86450    0.31940    1.000
    N45      N        0.31120    0.80440    0.27720    1.000
    O30      O        0.34380    0.67770    0.28790    1.000
    C148     C        0.07330    0.64180    0.04520    1.000
    C149     C        0.84280    0.91080    0.42340    1.000
    C150     C        0.31600    0.80790    0.35130    1.000
    C151     C        0.82680    0.05340    0.43000    1.000
    C152     C        0.31710    0.72590    0.26620    1.000
    C153     C        0.24480    0.73840    0.00340    1.000
    H97      H        0.23520    0.79280    0.00600    1.000
    H98      H        0.28680    0.72390    0.02030    1.000
    H99      H        0.25780    0.72680    0.97660    1.000
    C154     C        0.46440    0.89600    0.28950    1.000
    H100     H        0.51390    0.90580    0.30110    1.000
    H101     H        0.47000    0.85950    0.26840    1.000
    H102     H        0.44360    0.94340    0.27930    1.000
    C155     C        0.17360    0.69430    0.01500    1.000
    C156     C        0.71670    0.96790    0.42870    1.000
    C157     C        0.92850    0.91960    0.42630    1.000
    C158     C        0.14120    0.68310    0.05100    1.000
    C159     C        0.23020    0.74490    0.16380    1.000
    C160     C        0.28550    0.70640    0.22600    1.000
    C161     C        0.17520    0.78220    0.09810    1.000
    C162     C        0.68750    0.95400    0.35310    1.000
    H103     H        0.69670    0.00560    0.34400    1.000
    H104     H        0.73280    0.92320    0.34870    1.000
    H105     H        0.64490    0.93220    0.33890    1.000
    C163     C        0.91280    0.06250    0.42850    1.000
    C164     C        0.23420    0.90020    0.18760    1.000
    H106     H        0.23500    0.95160    0.19540    1.000
    C165     C        0.20810    0.88060    0.14950    1.000
    H107     H        0.19330    0.91910    0.13200    1.000
    C166     C        0.20440    0.80320    0.13810    1.000
    C167     C        0.66910    0.95540    0.39610    1.000
    C168     C        0.19450    0.64560    0.11350    1.000
    C169     C        0.22980    0.66690    0.15240    1.000
    C170     C        0.28280    0.63000    0.21470    1.000
    H108     H        0.29860    0.59130    0.23190    1.000
    C171     C        0.24500    0.76360    0.36280    1.000
    H109     H        0.22700    0.78140    0.38790    1.000
    H110     H        0.20550    0.77150    0.34340    1.000
    H111     H        0.25710    0.70960    0.36440    1.000
    C172     C        0.97510    0.85780    0.42720    1.000
    H112     H        0.95360    0.80860    0.42720    1.000
    C173     C        0.69390    0.97240    0.50370    1.000
    H113     H        0.65730    0.94620    0.52020    1.000
    H114     H        0.74430    0.95060    0.50760    1.000
    H115     H        0.69490    0.02620    0.51040    1.000
    C174     C        0.34440    0.82470    0.31460    1.000
    C175     C        0.25730    0.76520    0.20200    1.000
    C176     C        0.28380    0.86430    0.25340    1.000
    C177     C        0.25850    0.84380    0.21310    1.000
    C178     C        0.25590    0.61130    0.17650    1.000
    H116     H        0.25620    0.56020    0.16810    1.000
    C179     C        0.94430    0.13440    0.42820    1.000
    H117     H        0.91280    0.17790    0.42870    1.000
    C180     C        0.01630    0.61100    0.07440    1.000
    H118     H        0.04080    0.57260    0.09050    1.000
    H119     H        0.99800    0.65230    0.09070    1.000
    H120     H        0.97360    0.58810    0.06060    1.000
    Cu16     Cu       0.00757    0.41487    0.88479    1.000
    Cu17     Cu       0.86418    0.34161    0.93289    1.000
    Cu18     Cu       0.01218    0.41703    0.97800    1.000
    N46      N        0.92450    0.37310    0.85833    1.000
    N47      N        0.86450    0.33960    0.87770    1.000
    N48      N        0.56670    0.12910    0.50660    1.000
    N49      N        0.09850    0.44930    0.95055    1.000
    N50      N        0.09720    0.44530    0.90958    1.000
    N51      N        0.62780    0.16230    0.48760    1.000
    N52      N        0.67090    0.20430    0.58930    1.000
    O31      O        0.78120    0.42920    0.76579    1.000
    O32      O        0.28490    0.60830    0.93380    1.000
    N53      N        0.29860    0.47780    0.92770    1.000
    O33      O        0.31280    0.34950    0.91760    1.000
    O34      O        0.68890    0.07860    0.60370    1.000
    O35      O        0.65500    0.33130    0.57490    1.000
    C181     C        0.17140    0.46360    0.96220    1.000
    C182     C        0.45920    0.49550    0.92800    1.000
    C183     C        0.91190    0.36450    0.81940    1.000
    N54      N        0.81120    0.30440    0.77720    1.000
    O36      O        0.84380    0.17770    0.78790    1.000
    C184     C        0.57330    0.14180    0.54520    1.000
    C185     C        0.34280    0.41080    0.92340    1.000
    C186     C        0.81600    0.30790    0.85130    1.000
    C187     C        0.32680    0.55340    0.93000    1.000
    C188     C        0.81710    0.22590    0.76620    1.000
    C189     C        0.74480    0.23840    0.50340    1.000
    H121     H        0.73520    0.29280    0.50600    1.000
    H122     H        0.78680    0.22390    0.52030    1.000
    H123     H        0.75780    0.22680    0.47660    1.000
    C190     C        0.96440    0.39600    0.78950    1.000
    H124     H        0.01390    0.40580    0.80110    1.000
    H125     H        0.97000    0.35950    0.76840    1.000
    H126     H        0.94360    0.44340    0.77930    1.000
    C191     C        0.67360    0.19430    0.51500    1.000
    C192     C        0.21670    0.46790    0.92870    1.000
    C193     C        0.42850    0.41960    0.92630    1.000
    C194     C        0.64120    0.18310    0.55100    1.000
    C195     C        0.73020    0.24490    0.66380    1.000
    C196     C        0.78550    0.20640    0.72600    1.000
    C197     C        0.67520    0.28220    0.59810    1.000
    C198     C        0.18750    0.45400    0.85310    1.000
    H127     H        0.19670    0.50560    0.84400    1.000
    H128     H        0.23280    0.42320    0.84870    1.000
    H129     H        0.14490    0.43220    0.83890    1.000
    C199     C        0.41280    0.56250    0.92850    1.000
    C200     C        0.73420    0.40020    0.68760    1.000
    H130     H        0.73500    0.45160    0.69540    1.000
    C201     C        0.70810    0.38060    0.64950    1.000
    H131     H        0.69330    0.41910    0.63200    1.000
    C202     C        0.70440    0.30320    0.63810    1.000
    C203     C        0.16910    0.45540    0.89610    1.000
    C204     C        0.69450    0.14560    0.61350    1.000
    C205     C        0.72980    0.16690    0.65240    1.000
    C206     C        0.78280    0.13000    0.71470    1.000
    H132     H        0.79860    0.09130    0.73190    1.000
    C207     C        0.74500    0.26360    0.86280    1.000
    H133     H        0.72700    0.28140    0.88790    1.000
    H134     H        0.70550    0.27150    0.84340    1.000
    H135     H        0.75710    0.20960    0.86440    1.000
    C208     C        0.47510    0.35780    0.92720    1.000
    H136     H        0.45360    0.30860    0.92720    1.000
    C209     C        0.19390    0.47240    0.00370    1.000
    H137     H        0.15730    0.44620    0.02020    1.000
    H138     H        0.24430    0.45060    0.00760    1.000
    H139     H        0.19490    0.52620    0.01040    1.000
    C210     C        0.84440    0.32470    0.81460    1.000
    C211     C        0.75730    0.26520    0.70200    1.000
    C212     C        0.78380    0.36430    0.75340    1.000
    C213     C        0.75850    0.34380    0.71310    1.000
    C214     C        0.75590    0.11130    0.67650    1.000
    H140     H        0.75620    0.06020    0.66810    1.000
    C215     C        0.44430    0.63440    0.92820    1.000
    H141     H        0.41280    0.67790    0.92870    1.000
    C216     C        0.51630    0.11100    0.57440    1.000
    H142     H        0.54080    0.07260    0.59050    1.000
    H143     H        0.49800    0.15230    0.59070    1.000
    H144     H        0.47360    0.08810    0.56060    1.000
    Cu19     Cu       0.49243    0.08513    0.38479    1.000
    Cu20     Cu       0.63582    0.15839    0.43289    1.000
    Cu21     Cu       0.48782    0.08297    0.47800    1.000
    N55      N        0.57550    0.12690    0.35833    1.000
    N56      N        0.63550    0.16040    0.37770    1.000
    N57      N        0.93330    0.37090    0.00660    1.000
    N58      N        0.40150    0.05070    0.45055    1.000
    N59      N        0.40280    0.05470    0.40958    1.000
    N60      N        0.87220    0.33770    0.98760    1.000
    N61      N        0.82910    0.29570    0.08930    1.000
    O37      O        0.71880    0.07080    0.26579    1.000
    O38      O        0.21510    0.89170    0.43380    1.000
    N62      N        0.20140    0.02220    0.42770    1.000
    O39      O        0.18720    0.15050    0.41760    1.000
    O40      O        0.81110    0.42140    0.10370    1.000
    O41      O        0.84500    0.16870    0.07490    1.000
    C217     C        0.32860    0.03640    0.46220    1.000
    C218     C        0.04080    0.00450    0.42800    1.000
    C219     C        0.58810    0.13550    0.31940    1.000
    N63      N        0.68880    0.19560    0.27720    1.000
    O42      O        0.65620    0.32230    0.28790    1.000
    C220     C        0.92670    0.35820    0.04520    1.000
    C221     C        0.15720    0.08920    0.42340    1.000
    C222     C        0.68400    0.19210    0.35130    1.000
    C223     C        0.17320    0.94660    0.43000    1.000
    C224     C        0.68290    0.27410    0.26620    1.000
    C225     C        0.75520    0.26160    0.00340    1.000
    H145     H        0.76480    0.20720    0.00600    1.000
    H146     H        0.71320    0.27610    0.02030    1.000
    H147     H        0.74220    0.27320    0.97660    1.000
    C226     C        0.53560    0.10400    0.28950    1.000
    H148     H        0.48610    0.09420    0.30110    1.000
    H149     H        0.53000    0.14050    0.26840    1.000
    H150     H        0.55640    0.05660    0.27930    1.000
    C227     C        0.82640    0.30570    0.01500    1.000
    C228     C        0.28330    0.03210    0.42870    1.000
    C229     C        0.07150    0.08040    0.42630    1.000
    C230     C        0.85880    0.31690    0.05100    1.000
    C231     C        0.76980    0.25510    0.16380    1.000
    C232     C        0.71450    0.29360    0.22600    1.000
    C233     C        0.82480    0.21780    0.09810    1.000
    C234     C        0.31250    0.04600    0.35310    1.000
    H151     H        0.30330    0.99440    0.34400    1.000
    H152     H        0.26720    0.07680    0.34870    1.000
    H153     H        0.35510    0.06780    0.33890    1.000
    C235     C        0.08720    0.93750    0.42850    1.000
    C236     C        0.76580    0.09980    0.18760    1.000
    H154     H        0.76500    0.04840    0.19540    1.000
    C237     C        0.79190    0.11940    0.14950    1.000
    H155     H        0.80670    0.08090    0.13200    1.000
    C238     C        0.79560    0.19680    0.13810    1.000
    C239     C        0.33090    0.04460    0.39610    1.000
    C240     C        0.80550    0.35440    0.11350    1.000
    C241     C        0.77020    0.33310    0.15240    1.000
    C242     C        0.71720    0.37000    0.21470    1.000
    H156     H        0.70140    0.40870    0.23190    1.000
    C243     C        0.75500    0.23640    0.36280    1.000
    H157     H        0.77300    0.21860    0.38790    1.000
    H158     H        0.79450    0.22850    0.34340    1.000
    H159     H        0.74290    0.29040    0.36440    1.000
    C244     C        0.02490    0.14220    0.42720    1.000
    H160     H        0.04640    0.19140    0.42720    1.000
    C245     C        0.30610    0.02760    0.50370    1.000
    H161     H        0.34270    0.05380    0.52020    1.000
    H162     H        0.25570    0.04940    0.50760    1.000
    H163     H        0.30510    0.97380    0.51040    1.000
    C246     C        0.65560    0.17530    0.31460    1.000
    C247     C        0.74270    0.23480    0.20200    1.000
    C248     C        0.71620    0.13570    0.25340    1.000
    C249     C        0.74150    0.15620    0.21310    1.000
    C250     C        0.74410    0.38870    0.17650    1.000
    H164     H        0.74380    0.43980    0.16810    1.000
    C251     C        0.05570    0.86560    0.42820    1.000
    H165     H        0.08720    0.82210    0.42870    1.000
    C252     C        0.98370    0.38900    0.07440    1.000
    H166     H        0.95920    0.42740    0.09050    1.000
    H167     H        0.00200    0.34770    0.09070    1.000
    H168     H        0.02640    0.41190    0.06060    1.000
    Cu22     Cu       0.99243    0.58513    0.88479    1.000
    Cu23     Cu       0.13582    0.65839    0.93289    1.000
    Cu24     Cu       0.98782    0.58297    0.97800    1.000
    N64      N        0.07550    0.62690    0.85833    1.000
    N65      N        0.13550    0.66040    0.87770    1.000
    N66      N        0.43330    0.87090    0.50660    1.000
    N67      N        0.90150    0.55070    0.95055    1.000
    N68      N        0.90280    0.55470    0.90958    1.000
    N69      N        0.37220    0.83770    0.48760    1.000
    N70      N        0.32910    0.79570    0.58930    1.000
    O43      O        0.21880    0.57080    0.76579    1.000
    O44      O        0.71510    0.39170    0.93380    1.000
    N71      N        0.70140    0.52220    0.92770    1.000
    O45      O        0.68720    0.65050    0.91760    1.000
    O46      O        0.31110    0.92140    0.60370    1.000
    O47      O        0.34500    0.66870    0.57490    1.000
    C253     C        0.82860    0.53640    0.96220    1.000
    C254     C        0.54080    0.50450    0.92800    1.000
    C255     C        0.08810    0.63550    0.81940    1.000
    N72      N        0.18880    0.69560    0.77720    1.000
    O48      O        0.15620    0.82230    0.78790    1.000
    C256     C        0.42670    0.85820    0.54520    1.000
    C257     C        0.65720    0.58920    0.92340    1.000
    C258     C        0.18400    0.69210    0.85130    1.000
    C259     C        0.67320    0.44660    0.93000    1.000
    C260     C        0.18290    0.77410    0.76620    1.000
    C261     C        0.25520    0.76160    0.50340    1.000
    H169     H        0.26480    0.70720    0.50600    1.000
    H170     H        0.21320    0.77610    0.52030    1.000
    H171     H        0.24220    0.77320    0.47660    1.000
    C262     C        0.03560    0.60400    0.78950    1.000
    H172     H        0.98610    0.59420    0.80110    1.000
    H173     H        0.03000    0.64050    0.76840    1.000
    H174     H        0.05640    0.55660    0.77930    1.000
    C263     C        0.32640    0.80570    0.51500    1.000
    C264     C        0.78330    0.53210    0.92870    1.000
    C265     C        0.57150    0.58040    0.92630    1.000
    C266     C        0.35880    0.81690    0.55100    1.000
    C267     C        0.26980    0.75510    0.66380    1.000
    C268     C        0.21450    0.79360    0.72600    1.000
    C269     C        0.32480    0.71780    0.59810    1.000
    C270     C        0.81250    0.54600    0.85310    1.000
    H175     H        0.80330    0.49440    0.84400    1.000
    H176     H        0.76720    0.57680    0.84870    1.000
    H177     H        0.85510    0.56780    0.83890    1.000
    C271     C        0.58720    0.43750    0.92850    1.000
    C272     C        0.26580    0.59980    0.68760    1.000
    H178     H        0.26500    0.54840    0.69540    1.000
    C273     C        0.29190    0.61940    0.64950    1.000
    H179     H        0.30670    0.58090    0.63200    1.000
    C274     C        0.29560    0.69680    0.63810    1.000
    C275     C        0.83090    0.54460    0.89610    1.000
    C276     C        0.30550    0.85440    0.61350    1.000
    C277     C        0.27020    0.83310    0.65240    1.000
    C278     C        0.21720    0.87000    0.71470    1.000
    H180     H        0.20140    0.90870    0.73190    1.000
    C279     C        0.25500    0.73640    0.86280    1.000
    H181     H        0.27300    0.71860    0.88790    1.000
    H182     H        0.29450    0.72850    0.84340    1.000
    H183     H        0.24290    0.79040    0.86440    1.000
    C280     C        0.52490    0.64220    0.92720    1.000
    H184     H        0.54640    0.69140    0.92720    1.000
    C281     C        0.80610    0.52760    0.00370    1.000
    H185     H        0.84270    0.55380    0.02020    1.000
    H186     H        0.75570    0.54940    0.00760    1.000
    H187     H        0.80510    0.47380    0.01040    1.000
    C282     C        0.15560    0.67530    0.81460    1.000
    C283     C        0.24270    0.73480    0.70200    1.000
    C284     C        0.21620    0.63570    0.75340    1.000
    C285     C        0.24150    0.65620    0.71310    1.000
    C286     C        0.24410    0.88870    0.67650    1.000
    H188     H        0.24380    0.93980    0.66810    1.000
    C287     C        0.55570    0.36560    0.92820    1.000
    H189     H        0.58720    0.32210    0.92870    1.000
    C288     C        0.48370    0.88900    0.57440    1.000
    H190     H        0.45920    0.92740    0.59050    1.000
    H191     H        0.50200    0.84770    0.59070    1.000
    H192     H        0.52640    0.91190    0.56060    1.000
