# CIF file generated by openbabel 3.1.0, see https://openbabel.org
data_I
_chemical_name_common 'image0'
_cell_length_a 11.4087
_cell_length_b 13.6584
_cell_length_c 24.023
_cell_angle_alpha 93.171
_cell_angle_beta 103.627
_cell_angle_gamma 112.671
_space_group_name_H-M_alt 'P 1'
_space_group_name_Hall 'P 1'
loop_
    _symmetry_equiv_pos_as_xyz
    x,y,z
loop_
    _atom_site_label
    _atom_site_type_symbol
    _atom_site_fract_x
    _atom_site_fract_y
    _atom_site_fract_z
    _atom_site_occupancy
    Sm1      Sm       0.64698    0.59774    0.96206    1.000
    O1       O        0.63700    0.61070    0.85760    1.000
    O2       O        0.60410    0.68960    0.03500    1.000
    O3       O        0.62680    0.74180    0.91180    1.000
    O4       O        0.43350    0.59000    0.06590    1.000
    C1       C        0.62560    0.69970    0.86310    1.000
    C2       C        0.61340    0.75560    0.81150    1.000
    C3       C        0.57670    0.84260    0.81550    1.000
    C4       C        0.63090    0.72390    0.76070    1.000
    H1       H        0.56500    0.86560    0.85010    1.000
    C5       C        0.55830    0.89310    0.76910    1.000
    C6       C        0.61650    0.77530    0.71260    1.000
    H2       H        0.65330    0.66550    0.75780    1.000
    C7       C        0.57990    0.86080    0.71750    1.000
    C8       C        0.51600    0.98630    0.76310    1.000
    H3       H        0.63090    0.75320    0.67850    1.000
    C9       C        0.55920    0.93150    0.67560    1.000
    C10      C        0.37650    0.95130    0.76860    1.000
    C11      C        0.51990    0.00310    0.70220    1.000
    C12      C        0.61100    0.08430    0.80880    1.000
    C13      C        0.56360    0.93280    0.61900    1.000
    H4       H        0.34800    0.00780    0.75990    1.000
    H5       H        0.37520    0.93850    0.80780    1.000
    H6       H        0.31860    0.88680    0.74150    1.000
    C14      C        0.49220    0.07960    0.67210    1.000
    H7       H        0.58010    0.14060    0.80550    1.000
    H8       H        0.61680    0.06540    0.84730    1.000
    H9       H        0.69610    0.10870    0.80190    1.000
    C15      C        0.53250    0.00610    0.58870    1.000
    H10      H        0.58750    0.88410    0.60120    1.000
    C16      C        0.49680    0.07950    0.61550    1.000
    H11      H        0.47090    0.12990    0.69010    1.000
    H12      H        0.53530    0.00690    0.55040    1.000
    C17      C        0.46360    0.16210    0.58190    1.000
    O5       O        0.45610    0.15500    0.52890    1.000
    O6       O        0.43960    0.23050    0.60780    1.000
    Sm2      Sm       0.37573    0.29807    0.51771    1.000
    O7       O        0.15790    0.14800    0.48510    1.000
    O8       O        0.26820    0.19510    0.42120    1.000
    C18      C        0.16410    0.13650    0.43410    1.000
    C19      C        0.05220    0.05240    0.38740    1.000
    C20      C        0.06190    0.05370    0.33010    1.000
    C21      C        0.94500    0.97930    0.40080    1.000
    C22      C        0.95610    0.97720    0.28720    1.000
    H13      H        0.13530    0.10310    0.32130    1.000
    C23      C        0.84140    0.90280    0.35660    1.000
    H14      H        0.94130    0.98060    0.43910    1.000
    C24      C        0.94270    0.96060    0.22180    1.000
    C25      C        0.84780    0.90250    0.30030    1.000
    H15      H        0.76860    0.85230    0.36530    1.000
    C26      C        0.94600    0.06150    0.19530    1.000
    C27      C        0.80750    0.86630    0.19990    1.000
    C28      C        0.05160    0.93140    0.20960    1.000
    C29      C        0.75580    0.83330    0.24620    1.000
    H16      H        0.92480    0.04470    0.15350    1.000
    H17      H        0.88170    0.08240    0.20560    1.000
    H18      H        0.03120    0.11960    0.20960    1.000
    C30      C        0.74180    0.81270    0.14420    1.000
    H19      H        0.05620    0.87310    0.22970    1.000
    H20      H        0.03350    0.91030    0.16830    1.000
    H21      H        0.13390    0.99290    0.22330    1.000
    C31      C        0.63170    0.74840    0.23600    1.000
    H22      H        0.77860    0.83370    0.11390    1.000
    C32      C        0.61790    0.72550    0.13380    1.000
    C33      C        0.56460    0.69480    0.17920    1.000
    H23      H        0.59450    0.72810    0.26640    1.000
    C34      C        0.54810    0.66480    0.07350    1.000
    H24      H        0.48250    0.63740    0.17180    1.000
    O9       O        0.77260    0.56470    0.04810    1.000
    O10      O        0.58430    0.46830    0.06540    1.000
    O11      O        0.45280    0.54190    0.42360    1.000
    O12      O        0.31730    0.41800    0.46270    1.000
    C35      C        0.34140    0.47070    0.42160    1.000
    C36      C        0.22970    0.44770    0.36900    1.000
    C37      C        0.11330    0.35580    0.35800    1.000
    C38      C        0.24260    0.52130    0.33010    1.000
    C39      C        0.00810    0.33770    0.31050    1.000
    H25      H        0.10610    0.30560    0.38310    1.000
    C40      C        0.14000    0.50580    0.28390    1.000
    H26      H        0.32220    0.58110    0.33620    1.000
    C41      C        0.02070    0.41420    0.27340    1.000
    H27      H        0.93030    0.27580    0.30330    1.000
    C42      C        0.12610    0.57620    0.23830    1.000
    C43      C        0.92380    0.42080    0.22260    1.000
    C44      C        0.22770    0.58830    0.20300    1.000
    C45      C        0.14620    0.68730    0.26560    1.000
    C46      C        0.98570    0.51410    0.20160    1.000
    C47      C        0.78900    0.35260    0.19710    1.000
    H28      H        0.21980    0.51870    0.18790    1.000
    H29      H        0.31470    0.62830    0.22830    1.000
    H30      H        0.21190    0.62610    0.17110    1.000
    H31      H        0.08620    0.68000    0.28880    1.000
    H32      H        0.23470    0.72500    0.28980    1.000
    H33      H        0.12960    0.72690    0.23470    1.000
    C48      C        0.91460    0.54090    0.15410    1.000
    C49      C        0.72150    0.38220    0.15050    1.000
    H34      H        0.74750    0.29020    0.21130    1.000
    C50      C        0.78350    0.47490    0.12950    1.000
    H35      H        0.95530    0.60270    0.13920    1.000
    H36      H        0.63260    0.33910    0.13280    1.000
    C51      C        0.70700    0.50440    0.07710    1.000
    Sm3      Sm       0.35302    0.40226    0.03794    1.000
    O13      O        0.36300    0.38930    0.14240    1.000
    O14      O        0.39590    0.31040    0.96500    1.000
    O15      O        0.37320    0.25820    0.08820    1.000
    O16      O        0.56650    0.41000    0.93410    1.000
    C52      C        0.37440    0.30030    0.13690    1.000
    C53      C        0.38660    0.24440    0.18850    1.000
    C54      C        0.42330    0.15740    0.18450    1.000
    C55      C        0.36910    0.27610    0.23930    1.000
    H37      H        0.43500    0.13440    0.14990    1.000
    C56      C        0.44170    0.10690    0.23090    1.000
    C57      C        0.38350    0.22470    0.28740    1.000
    H38      H        0.34670    0.33450    0.24220    1.000
    C58      C        0.42010    0.13920    0.28250    1.000
    C59      C        0.48400    0.01370    0.23690    1.000
    H39      H        0.36910    0.24680    0.32150    1.000
    C60      C        0.44080    0.06850    0.32440    1.000
    C61      C        0.62350    0.04870    0.23140    1.000
    C62      C        0.48010    0.99690    0.29780    1.000
    C63      C        0.38900    0.91570    0.19120    1.000
    C64      C        0.43640    0.06720    0.38100    1.000
    H40      H        0.65200    0.99220    0.24010    1.000
    H41      H        0.62480    0.06150    0.19220    1.000
    H42      H        0.68140    0.11320    0.25850    1.000
    C65      C        0.50780    0.92040    0.32790    1.000
    H43      H        0.41990    0.85940    0.19450    1.000
    H44      H        0.38320    0.93460    0.15270    1.000
    H45      H        0.30390    0.89130    0.19810    1.000
    C66      C        0.46750    0.99390    0.41130    1.000
    H46      H        0.41250    0.11590    0.39880    1.000
    C67      C        0.50320    0.92050    0.38450    1.000
    H47      H        0.52910    0.87010    0.30990    1.000
    H48      H        0.46470    0.99310    0.44960    1.000
    C68      C        0.53640    0.83790    0.41810    1.000
    O17      O        0.54390    0.84500    0.47110    1.000
    O18      O        0.56040    0.76950    0.39220    1.000
    Sm4      Sm       0.62427    0.70193    0.48229    1.000
    O19      O        0.84210    0.85200    0.51490    1.000
    O20      O        0.73180    0.80490    0.57880    1.000
    C69      C        0.83590    0.86350    0.56590    1.000
    C70      C        0.94780    0.94760    0.61260    1.000
    C71      C        0.93810    0.94630    0.66990    1.000
    C72      C        0.05500    0.02070    0.59920    1.000
    C73      C        0.04390    0.02280    0.71280    1.000
    H49      H        0.86470    0.89690    0.67870    1.000
    C74      C        0.15860    0.09720    0.64340    1.000
    H50      H        0.05870    0.01940    0.56090    1.000
    C75      C        0.05730    0.03940    0.77820    1.000
    C76      C        0.15220    0.09750    0.69970    1.000
    H51      H        0.23140    0.14770    0.63470    1.000
    C77      C        0.05400    0.93850    0.80470    1.000
    C78      C        0.19250    0.13370    0.80010    1.000
    C79      C        0.94840    0.06860    0.79040    1.000
    C80      C        0.24420    0.16670    0.75380    1.000
    H52      H        0.07520    0.95530    0.84650    1.000
    H53      H        0.11830    0.91760    0.79440    1.000
    H54      H        0.96880    0.88040    0.79040    1.000
    C81      C        0.25820    0.18730    0.85580    1.000
    H55      H        0.94380    0.12690    0.77030    1.000
    H56      H        0.96650    0.08970    0.83170    1.000
    H57      H        0.86610    0.00710    0.77670    1.000
    C82      C        0.36830    0.25160    0.76400    1.000
    H58      H        0.22140    0.16630    0.88610    1.000
    C83      C        0.38210    0.27450    0.86620    1.000
    C84      C        0.43540    0.30520    0.82080    1.000
    H59      H        0.40550    0.27190    0.73360    1.000
    C85      C        0.45190    0.33520    0.92650    1.000
    H60      H        0.51750    0.36260    0.82820    1.000
    O21      O        0.22740    0.43530    0.95190    1.000
    O22      O        0.41570    0.53170    0.93460    1.000
    O23      O        0.54720    0.45810    0.57640    1.000
    O24      O        0.68270    0.58200    0.53730    1.000
    C86      C        0.65860    0.52930    0.57840    1.000
    C87      C        0.77030    0.55230    0.63100    1.000
    C88      C        0.88670    0.64420    0.64200    1.000
    C89      C        0.75740    0.47870    0.66990    1.000
    C90      C        0.99190    0.66230    0.68950    1.000
    H61      H        0.89390    0.69440    0.61690    1.000
    C91      C        0.86000    0.49420    0.71610    1.000
    H62      H        0.67780    0.41890    0.66380    1.000
    C92      C        0.97930    0.58580    0.72660    1.000
    H63      H        0.06970    0.72420    0.69670    1.000
    C93      C        0.87390    0.42380    0.76170    1.000
    C94      C        0.07620    0.57920    0.77740    1.000
    C95      C        0.77230    0.41170    0.79700    1.000
    C96      C        0.85380    0.31270    0.73440    1.000
    C97      C        0.01430    0.48590    0.79840    1.000
    C98      C        0.21100    0.64740    0.80290    1.000
    H64      H        0.78020    0.48130    0.81210    1.000
    H65      H        0.68530    0.37170    0.77170    1.000
    H66      H        0.78810    0.37390    0.82890    1.000
    H67      H        0.91380    0.32000    0.71120    1.000
    H68      H        0.76530    0.27500    0.71020    1.000
    H69      H        0.87040    0.27310    0.76530    1.000
    C99      C        0.08540    0.45910    0.84590    1.000
    C100     C        0.27850    0.61780    0.84950    1.000
    H70      H        0.25250    0.70980    0.78870    1.000
    C101     C        0.21650    0.52510    0.87050    1.000
    H71      H        0.04470    0.39730    0.86080    1.000
    H72      H        0.36740    0.66090    0.86720    1.000
    C102     C        0.29300    0.49560    0.92290    1.000
