# CIF file generated by openbabel 3.1.0, see https://openbabel.org
data_I
_chemical_name_common 'image0'
_cell_length_a 10.2293
_cell_length_b 34.4803
_cell_length_c 10.7355
_cell_angle_alpha 90
_cell_angle_beta 109.985
_cell_angle_gamma 90
_space_group_name_H-M_alt 'P 1'
_space_group_name_Hall 'P 1'
loop_
    _symmetry_equiv_pos_as_xyz
    x,y,z
loop_
    _atom_site_label
    _atom_site_type_symbol
    _atom_site_fract_x
    _atom_site_fract_y
    _atom_site_fract_z
    _atom_site_occupancy
    O1       O        0.24710    0.04104    0.83690    1.000
    C1       C        0.35870    0.03120    0.81730    1.000
    H1       H        0.41110    0.04890    0.78560    1.000
    C2       C        0.32770    0.96260    0.89980    1.000
    H2       H        0.24670    0.97480    0.91270    1.000
    H3       H        0.39070    0.95290    0.98490    1.000
    H4       H        0.29680    0.94100    0.83740    1.000
    C3       C        0.52960    0.97840    0.82770    1.000
    H5       H        0.57230    0.00040    0.79840    1.000
    H6       H        0.50830    0.95790    0.76040    1.000
    H7       H        0.59420    0.96840    0.91160    1.000
    N1       N        0.40040    0.99120    0.84660    1.000
    C4       C        0.57050    0.11748    0.52460    1.000
    C5       C        0.04460    0.13250    0.44720    1.000
    C6       C        0.02150    0.17776    0.84530    1.000
    C7       C        0.04210    0.21492    0.92220    1.000
    C8       C        0.10950    0.21496    0.06020    1.000
    C9       C        0.13250    0.17782    0.13830    1.000
    C10      C        0.90330    0.06999    0.84260    1.000
    C11      C        0.96060    0.03481    0.92790    1.000
    C12      C        0.89000    0.00008    0.88230    1.000
    H8       H        0.81450    0.00010    0.80070    1.000
    C13      C        0.92640    0.96543    0.95230    1.000
    C14      C        0.84160    0.93005    0.89250    1.000
    N2       N        0.69860    0.11731    0.51840    1.000
    N3       N        0.67940    0.11653    0.38660    1.000
    N4       N        0.54790    0.11611    0.31910    1.000
    N5       N        0.47450    0.11689    0.40410    1.000
    N6       N        0.54600    0.12172    0.64020    1.000
    H9       H        0.62110    0.11290    0.70790    1.000
    H10      H        0.46990    0.10740    0.63590    1.000
    N7       N        0.03030    0.12419    0.56480    1.000
    N8       N        0.15620    0.11135    0.64320    1.000
    N9       N        0.24260    0.11134    0.57900    1.000
    N10      N        0.17630    0.12455    0.45430    1.000
    N11      N        0.94370    0.14633    0.34070    1.000
    H11      H        0.86620    0.13150    0.32520    1.000
    H12      H        0.97240    0.14520    0.26940    1.000
    O2       O        0.12350    0.15594    0.86700    1.000
    O3       O        0.90160    0.17244    0.75760    1.000
    O4       O        0.03170    0.15520    0.12020    1.000
    O5       O        0.25410    0.17227    0.22340    1.000
    O6       O        0.97640    0.08396    0.77720    1.000
    O7       O        0.78560    0.08145    0.83110    1.000
    O8       O        0.81190    0.92641    0.76880    1.000
    O9       O        0.80070    0.90712    0.96070    1.000
    Zn1      Zn       0.88207    0.12613    0.64898    1.000
    Zn2      Zn       0.19428    0.09794    0.84884    1.000
    Zn3      Zn       0.26865    0.12279    0.31482    1.000
    O10      O        0.94900    0.99830    0.50600    1.000
    C15      C        0.15560    0.02080    0.75020    1.000
    H13      H        0.07800    0.03250    0.68490    1.000
    C16      C        0.29710    0.96020    0.85190    1.000
    H14      H        0.36890    0.97960    0.89290    1.000
    H15      H        0.33410    0.94070    0.80620    1.000
    H16      H        0.26910    0.94750    0.92060    1.000
    C17      C        0.07500    0.95390    0.65990    1.000
    H17      H        0.05640    0.93110    0.70570    1.000
    H18      H        0.11300    0.94560    0.59190    1.000
    H19      H        0.98820    0.96820    0.61800    1.000
    N12      N        0.17620    0.97920    0.75630    1.000
    O11      O        0.01500    0.97180    0.57600    1.000
    O12      O        0.75290    0.54104    0.16310    1.000
    C18      C        0.64130    0.53120    0.18270    1.000
    H20      H        0.58890    0.54890    0.21440    1.000
    C19      C        0.67230    0.46260    0.10020    1.000
    H21      H        0.75330    0.47480    0.08730    1.000
    H22      H        0.60930    0.45290    0.01510    1.000
    H23      H        0.70320    0.44100    0.16260    1.000
    C20      C        0.47040    0.47840    0.17230    1.000
    H24      H        0.42770    0.50040    0.20160    1.000
    H25      H        0.49170    0.45790    0.23960    1.000
    H26      H        0.40580    0.46840    0.08840    1.000
    N13      N        0.59960    0.49120    0.15340    1.000
    C21      C        0.42950    0.61748    0.47540    1.000
    C22      C        0.95540    0.63250    0.55280    1.000
    C23      C        0.97850    0.67776    0.15470    1.000
    C24      C        0.95790    0.71492    0.07780    1.000
    C25      C        0.89050    0.71496    0.93980    1.000
    C26      C        0.86750    0.67782    0.86170    1.000
    C27      C        0.09670    0.56999    0.15740    1.000
    C28      C        0.03940    0.53481    0.07210    1.000
    C29      C        0.11000    0.50008    0.11770    1.000
    H27      H        0.18550    0.50010    0.19930    1.000
    C30      C        0.07360    0.46543    0.04770    1.000
    C31      C        0.15840    0.43005    0.10750    1.000
    N14      N        0.30140    0.61731    0.48160    1.000
    N15      N        0.32060    0.61653    0.61340    1.000
    N16      N        0.45210    0.61611    0.68090    1.000
    N17      N        0.52550    0.61689    0.59590    1.000
    N18      N        0.45400    0.62172    0.35980    1.000
    H28      H        0.37890    0.61290    0.29210    1.000
    H29      H        0.53010    0.60740    0.36410    1.000
    N19      N        0.96970    0.62419    0.43520    1.000
    N20      N        0.84380    0.61135    0.35680    1.000
    N21      N        0.75740    0.61134    0.42100    1.000
    N22      N        0.82370    0.62455    0.54570    1.000
    N23      N        0.05630    0.64633    0.65930    1.000
    H30      H        0.13380    0.63150    0.67480    1.000
    H31      H        0.02760    0.64520    0.73060    1.000
    O13      O        0.87650    0.65594    0.13300    1.000
    O14      O        0.09840    0.67244    0.24240    1.000
    O15      O        0.96830    0.65520    0.87980    1.000
    O16      O        0.74590    0.67227    0.77660    1.000
    O17      O        0.02360    0.58396    0.22280    1.000
    O18      O        0.21440    0.58145    0.16890    1.000
    O19      O        0.18810    0.42641    0.23120    1.000
    O20      O        0.19930    0.40712    0.03930    1.000
    Zn4      Zn       0.11793    0.62613    0.35102    1.000
    Zn5      Zn       0.80572    0.59794    0.15116    1.000
    Zn6      Zn       0.73135    0.62279    0.68518    1.000
    O21      O        0.05100    0.49830    0.49400    1.000
    C32      C        0.84440    0.52080    0.24980    1.000
    H32      H        0.92200    0.53250    0.31510    1.000
    C33      C        0.70290    0.46020    0.14810    1.000
    H33      H        0.63110    0.47960    0.10710    1.000
    H34      H        0.66590    0.44070    0.19380    1.000
    H35      H        0.73090    0.44750    0.07940    1.000
    C34      C        0.92500    0.45390    0.34010    1.000
    H36      H        0.94360    0.43110    0.29430    1.000
    H37      H        0.88700    0.44560    0.40810    1.000
    H38      H        0.01180    0.46820    0.38200    1.000
    N24      N        0.82380    0.47920    0.24370    1.000
    O22      O        0.98500    0.47180    0.42400    1.000
    O23      O        0.75290    0.95896    0.16310    1.000
    C35      C        0.64130    0.96880    0.18270    1.000
    H39      H        0.58890    0.95110    0.21440    1.000
    C36      C        0.67230    0.03740    0.10020    1.000
    H40      H        0.75330    0.02520    0.08730    1.000
    H41      H        0.60930    0.04710    0.01510    1.000
    H42      H        0.70320    0.05900    0.16260    1.000
    C37      C        0.47040    0.02160    0.17230    1.000
    H43      H        0.42770    0.99960    0.20160    1.000
    H44      H        0.49170    0.04210    0.23960    1.000
    H45      H        0.40580    0.03160    0.08840    1.000
    N25      N        0.59960    0.00880    0.15340    1.000
    C38      C        0.42950    0.88252    0.47540    1.000
    C39      C        0.95540    0.86750    0.55280    1.000
    C40      C        0.97850    0.82224    0.15470    1.000
    C41      C        0.95790    0.78508    0.07780    1.000
    C42      C        0.89050    0.78504    0.93980    1.000
    C43      C        0.86750    0.82218    0.86170    1.000
    C44      C        0.09670    0.93001    0.15740    1.000
    C45      C        0.03940    0.96519    0.07210    1.000
    C46      C        0.11000    0.99992    0.11770    1.000
    H46      H        0.18550    0.99990    0.19930    1.000
    C47      C        0.07360    0.03457    0.04770    1.000
    C48      C        0.15840    0.06995    0.10750    1.000
    N26      N        0.30140    0.88269    0.48160    1.000
    N27      N        0.32060    0.88347    0.61340    1.000
    N28      N        0.45210    0.88389    0.68090    1.000
    N29      N        0.52550    0.88311    0.59590    1.000
    N30      N        0.45400    0.87828    0.35980    1.000
    H47      H        0.37890    0.88710    0.29210    1.000
    H48      H        0.53010    0.89260    0.36410    1.000
    N31      N        0.96970    0.87581    0.43520    1.000
    N32      N        0.84380    0.88865    0.35680    1.000
    N33      N        0.75740    0.88866    0.42100    1.000
    N34      N        0.82370    0.87545    0.54570    1.000
    N35      N        0.05630    0.85367    0.65930    1.000
    H49      H        0.13380    0.86850    0.67480    1.000
    H50      H        0.02760    0.85480    0.73060    1.000
    O24      O        0.87650    0.84406    0.13300    1.000
    O25      O        0.09840    0.82756    0.24240    1.000
    O26      O        0.96830    0.84480    0.87980    1.000
    O27      O        0.74590    0.82773    0.77660    1.000
    O28      O        0.02360    0.91604    0.22280    1.000
    O29      O        0.21440    0.91855    0.16890    1.000
    O30      O        0.18810    0.07359    0.23120    1.000
    O31      O        0.19930    0.09288    0.03930    1.000
    Zn7      Zn       0.11793    0.87387    0.35102    1.000
    Zn8      Zn       0.80572    0.90206    0.15116    1.000
    Zn9      Zn       0.73135    0.87721    0.68518    1.000
    O32      O        0.05100    0.00170    0.49400    1.000
    C49      C        0.84440    0.97920    0.24980    1.000
    H51      H        0.92200    0.96750    0.31510    1.000
    C50      C        0.70290    0.03980    0.14810    1.000
    H52      H        0.63110    0.02040    0.10710    1.000
    H53      H        0.66590    0.05930    0.19380    1.000
    H54      H        0.73090    0.05250    0.07940    1.000
    C51      C        0.92500    0.04610    0.34010    1.000
    H55      H        0.94360    0.06890    0.29430    1.000
    H56      H        0.88700    0.05440    0.40810    1.000
    H57      H        0.01180    0.03180    0.38200    1.000
    N36      N        0.82380    0.02080    0.24370    1.000
    O33      O        0.98500    0.02820    0.42400    1.000
    O34      O        0.24710    0.45896    0.83690    1.000
    C52      C        0.35870    0.46880    0.81730    1.000
    H58      H        0.41110    0.45110    0.78560    1.000
    C53      C        0.32770    0.53740    0.89980    1.000
    H59      H        0.24670    0.52520    0.91270    1.000
    H60      H        0.39070    0.54710    0.98490    1.000
    H61      H        0.29680    0.55900    0.83740    1.000
    C54      C        0.52960    0.52160    0.82770    1.000
    H62      H        0.57230    0.49960    0.79840    1.000
    H63      H        0.50830    0.54210    0.76040    1.000
    H64      H        0.59420    0.53160    0.91160    1.000
    N37      N        0.40040    0.50880    0.84660    1.000
    C55      C        0.57050    0.38252    0.52460    1.000
    C56      C        0.04460    0.36750    0.44720    1.000
    C57      C        0.02150    0.32224    0.84530    1.000
    C58      C        0.04210    0.28508    0.92220    1.000
    C59      C        0.10950    0.28504    0.06020    1.000
    C60      C        0.13250    0.32218    0.13830    1.000
    C61      C        0.90330    0.43001    0.84260    1.000
    C62      C        0.96060    0.46519    0.92790    1.000
    C63      C        0.89000    0.49992    0.88230    1.000
    H65      H        0.81450    0.49990    0.80070    1.000
    C64      C        0.92640    0.53457    0.95230    1.000
    C65      C        0.84160    0.56995    0.89250    1.000
    N38      N        0.69860    0.38269    0.51840    1.000
    N39      N        0.67940    0.38347    0.38660    1.000
    N40      N        0.54790    0.38389    0.31910    1.000
    N41      N        0.47450    0.38311    0.40410    1.000
    N42      N        0.54600    0.37828    0.64020    1.000
    H66      H        0.62110    0.38710    0.70790    1.000
    H67      H        0.46990    0.39260    0.63590    1.000
    N43      N        0.03030    0.37581    0.56480    1.000
    N44      N        0.15620    0.38865    0.64320    1.000
    N45      N        0.24260    0.38866    0.57900    1.000
    N46      N        0.17630    0.37545    0.45430    1.000
    N47      N        0.94370    0.35367    0.34070    1.000
    H68      H        0.86620    0.36850    0.32520    1.000
    H69      H        0.97240    0.35480    0.26940    1.000
    O35      O        0.12350    0.34406    0.86700    1.000
    O36      O        0.90160    0.32756    0.75760    1.000
    O37      O        0.03170    0.34480    0.12020    1.000
    O38      O        0.25410    0.32773    0.22340    1.000
    O39      O        0.97640    0.41604    0.77720    1.000
    O40      O        0.78560    0.41855    0.83110    1.000
    O41      O        0.81190    0.57359    0.76880    1.000
    O42      O        0.80070    0.59288    0.96070    1.000
    Zn10     Zn       0.88207    0.37387    0.64898    1.000
    Zn11     Zn       0.19428    0.40206    0.84884    1.000
    Zn12     Zn       0.26865    0.37721    0.31482    1.000
    O43      O        0.94900    0.50170    0.50600    1.000
    C66      C        0.15560    0.47920    0.75020    1.000
    H70      H        0.07800    0.46750    0.68490    1.000
    C67      C        0.29710    0.53980    0.85190    1.000
    H71      H        0.36890    0.52040    0.89290    1.000
    H72      H        0.33410    0.55930    0.80620    1.000
    H73      H        0.26910    0.55250    0.92060    1.000
    C68      C        0.07500    0.54610    0.65990    1.000
    H74      H        0.05640    0.56890    0.70570    1.000
    H75      H        0.11300    0.55440    0.59190    1.000
    H76      H        0.98820    0.53180    0.61800    1.000
    N48      N        0.17620    0.52080    0.75630    1.000
    O44      O        0.01500    0.52820    0.57600    1.000
    C69      C        0.00710    0.25000    0.85490    1.000
    H77      H        0.95880    0.25000    0.76200    1.000
    C70      C        0.14330    0.25000    0.12820    1.000
    H78      H        0.18980    0.25000    0.22150    1.000
    C71      C        0.99290    0.75000    0.14510    1.000
    H79      H        0.04120    0.75000    0.23800    1.000
    C72      C        0.85670    0.75000    0.87180    1.000
    H80      H        0.81020    0.75000    0.77850    1.000
