# CIF file generated by openbabel 3.1.0, see https://openbabel.org
data_I
_chemical_name_common 'image0'
_cell_length_a 8.5552
_cell_length_b 10.1133
_cell_length_c 16.7025
_cell_angle_alpha 90
_cell_angle_beta 94.94
_cell_angle_gamma 90
_space_group_name_H-M_alt 'P 1'
_space_group_name_Hall 'P 1'
loop_
    _symmetry_equiv_pos_as_xyz
    x,y,z
loop_
    _atom_site_label
    _atom_site_type_symbol
    _atom_site_fract_x
    _atom_site_fract_y
    _atom_site_fract_z
    _atom_site_occupancy
    P1       P        0.65562    0.26770    0.17795    1.000
    P2       P        0.47390    0.78816    0.08375    1.000
    P3       P        0.62484    0.26808    0.49267    1.000
    P4       P        0.84313    0.55025    0.32252    1.000
    P5       P        0.02530    0.03079    0.41588    1.000
    P6       P        0.87519    0.54958    0.00899    1.000
    Al1      Al       0.83320    0.25785    0.34987    1.000
    Al2      Al       0.98060    0.23170    0.54840    1.000
    Al3      Al       0.66440    0.55810    0.15113    1.000
    Al4      Al       0.47910    0.08700    0.04863    1.000
    Al5      Al       0.32480    0.07670    0.51886    1.000
    Al6      Al       0.82413    0.24115    0.01952    1.000
    F1       F        0.54950    0.50390    0.05200    1.000
    F2       F        0.19750    0.23010    0.53010    1.000
    F3       F        0.95030    0.31680    0.44742    1.000
    F4       F        0.69350    0.08760    0.03070    1.000
    O1       O        0.66990    0.23150    0.40730    1.000
    O2       O        0.78750    0.27910    0.12070    1.000
    O3       O        0.83080    0.58270    0.09380    1.000
    O4       O        0.71700    0.20190    0.25790    1.000
    O5       O        0.29360    0.77260    0.07130    1.000
    O6       O        0.20470    0.04780    0.42590    1.000
    O7       O        0.92990    0.40410    0.00720    1.000
    O8       O        0.75950    0.24140    0.55630    1.000
    O9       O        0.53550    0.70130    0.15560    1.000
    O10      O        0.73830    0.57490    0.94380    1.000
    O11      O        0.51700    0.18490    0.14230    1.000
    O12      O        0.51550    0.93060    0.10500    1.000
    O13      O        0.56750    0.41300    0.49210    1.000
    O14      O        0.54930    0.74760    0.00760    1.000
    O15      O        0.90170    0.40770    0.30630    1.000
    O16      O        0.98150    0.63600    0.35710    1.000
    O17      O        0.96250    0.12000    0.34450    1.000
    O18      O        0.59860    0.40860    0.19380    1.000
    O19      O        0.77200    0.61270    0.24498    1.000
    O20      O        0.48920    0.17420    0.50950    1.000
    O21      O        0.01080    0.63660    0.98940    1.000
    O22      O        0.98320    0.88740    0.39350    1.000
    O23      O        0.95240    0.07310    0.49200    1.000
    O24      O        0.71420    0.53500    0.38140    1.000
    P7       P        0.34438    0.76770    0.82205    1.000
    P8       P        0.52610    0.28816    0.91625    1.000
    P9       P        0.37516    0.76808    0.50733    1.000
    P10      P        0.15687    0.05025    0.67748    1.000
    P11      P        0.97470    0.53079    0.58412    1.000
    P12      P        0.12481    0.04958    0.99101    1.000
    Al7      Al       0.16680    0.75785    0.65013    1.000
    Al8      Al       0.01940    0.73170    0.45160    1.000
    Al9      Al       0.33560    0.05810    0.84887    1.000
    Al10     Al       0.52090    0.58700    0.95137    1.000
    Al11     Al       0.67520    0.57670    0.48114    1.000
    Al12     Al       0.17587    0.74115    0.98048    1.000
    F5       F        0.45050    0.00390    0.94800    1.000
    F6       F        0.80250    0.73010    0.46990    1.000
    F7       F        0.04970    0.81680    0.55258    1.000
    F8       F        0.30650    0.58760    0.96930    1.000
    O25      O        0.33010    0.73150    0.59270    1.000
    O26      O        0.21250    0.77910    0.87930    1.000
    O27      O        0.16920    0.08270    0.90620    1.000
    O28      O        0.28300    0.70190    0.74210    1.000
    O29      O        0.70640    0.27260    0.92870    1.000
    O30      O        0.79530    0.54780    0.57410    1.000
    O31      O        0.07010    0.90410    0.99280    1.000
    O32      O        0.24050    0.74140    0.44370    1.000
    O33      O        0.46450    0.20130    0.84440    1.000
    O34      O        0.26170    0.07490    0.05620    1.000
    O35      O        0.48300    0.68490    0.85770    1.000
    O36      O        0.48450    0.43060    0.89500    1.000
    O37      O        0.43250    0.91300    0.50790    1.000
    O38      O        0.45070    0.24760    0.99240    1.000
    O39      O        0.09830    0.90770    0.69370    1.000
    O40      O        0.01850    0.13600    0.64290    1.000
    O41      O        0.03750    0.62000    0.65550    1.000
    O42      O        0.40140    0.90860    0.80620    1.000
    O43      O        0.22800    0.11270    0.75502    1.000
    O44      O        0.51080    0.67420    0.49050    1.000
    O45      O        0.98920    0.13660    0.01060    1.000
    O46      O        0.01680    0.38740    0.60650    1.000
    O47      O        0.04760    0.57310    0.50800    1.000
    O48      O        0.28580    0.03500    0.61860    1.000
