# CIF file generated by openbabel 3.1.0, see https://openbabel.org
data_I
_chemical_name_common 'image0'
_cell_length_a 12.647
_cell_length_b 13.284
_cell_length_c 24.926
_cell_angle_alpha 90
_cell_angle_beta 90
_cell_angle_gamma 90
_space_group_name_H-M_alt 'P 1'
_space_group_name_Hall 'P 1'
loop_
    _symmetry_equiv_pos_as_xyz
    x,y,z
loop_
    _atom_site_label
    _atom_site_type_symbol
    _atom_site_fract_x
    _atom_site_fract_y
    _atom_site_fract_z
    _atom_site_occupancy
    O1       O        0.59250    0.33580    0.72720    1.000
    U1       U        0.61111    0.21192    0.80253    1.000
    U2       U        0.76106    0.30727    0.67798    1.000
    U3       U        0.90564    0.17151    0.79409    1.000
    O2       O        0.75650    0.12790    0.84720    1.000
    O3       O        0.93310    0.22830    0.70050    1.000
    O4       O        0.75820    0.23710    0.75690    1.000
    O5       O        0.65810    0.39650    0.61200    1.000
    O6       O        0.48480    0.39350    0.62990    1.000
    O7       O        0.87380    0.34180    0.60300    1.000
    O8       O        0.03260    0.39130    0.63080    1.000
    C1       C        0.56310    0.41420    0.60020    1.000
    C2       C        0.53570    0.46070    0.54780    1.000
    C3       C        0.95720    0.39320    0.59900    1.000
    C4       C        0.97400    0.45310    0.54880    1.000
    O9       O        0.40750    0.66420    0.72720    1.000
    U4       U        0.38889    0.78808    0.80253    1.000
    U5       U        0.23894    0.69273    0.67798    1.000
    U6       U        0.09436    0.82849    0.79409    1.000
    O10      O        0.24350    0.87210    0.84720    1.000
    O11      O        0.06690    0.77170    0.70050    1.000
    O12      O        0.24180    0.76290    0.75690    1.000
    O13      O        0.34190    0.60350    0.61200    1.000
    O14      O        0.51520    0.60650    0.62990    1.000
    O15      O        0.12620    0.65820    0.60300    1.000
    O16      O        0.96740    0.60870    0.63080    1.000
    C5       C        0.43690    0.58580    0.60020    1.000
    C6       C        0.46430    0.53930    0.54780    1.000
    C7       C        0.04280    0.60680    0.59900    1.000
    C8       C        0.02600    0.54690    0.54880    1.000
    O17      O        0.90750    0.83580    0.77280    1.000
    U7       U        0.88889    0.71192    0.69747    1.000
    U8       U        0.73894    0.80727    0.82202    1.000
    U9       U        0.59436    0.67151    0.70591    1.000
    O18      O        0.74350    0.62790    0.65280    1.000
    O19      O        0.56690    0.72830    0.79950    1.000
    O20      O        0.74180    0.73710    0.74310    1.000
    O21      O        0.84190    0.89650    0.88800    1.000
    O22      O        0.01520    0.89350    0.87010    1.000
    O23      O        0.62620    0.84180    0.89700    1.000
    O24      O        0.46740    0.89130    0.86920    1.000
    C9       C        0.93690    0.91420    0.89980    1.000
    C10      C        0.96430    0.96070    0.95220    1.000
    C11      C        0.54280    0.89320    0.90100    1.000
    C12      C        0.52600    0.95310    0.95120    1.000
    O25      O        0.09250    0.16420    0.77280    1.000
    U10      U        0.11111    0.28808    0.69747    1.000
    U11      U        0.26106    0.19273    0.82202    1.000
    U12      U        0.40564    0.32849    0.70591    1.000
    O26      O        0.25650    0.37210    0.65280    1.000
    O27      O        0.43310    0.27170    0.79950    1.000
    O28      O        0.25820    0.26290    0.74310    1.000
    O29      O        0.15810    0.10350    0.88800    1.000
    O30      O        0.98480    0.10650    0.87010    1.000
    O31      O        0.37380    0.15820    0.89700    1.000
    O32      O        0.53260    0.10870    0.86920    1.000
    C13      C        0.06310    0.08580    0.89980    1.000
    C14      C        0.03570    0.03930    0.95220    1.000
    C15      C        0.45720    0.10680    0.90100    1.000
    C16      C        0.47400    0.04690    0.95120    1.000
    O33      O        0.40750    0.66420    0.27280    1.000
    U13      U        0.38889    0.78808    0.19747    1.000
    U14      U        0.23894    0.69273    0.32202    1.000
    U15      U        0.09436    0.82849    0.20591    1.000
    O34      O        0.24350    0.87210    0.15280    1.000
    O35      O        0.06690    0.77170    0.29950    1.000
    O36      O        0.24180    0.76290    0.24310    1.000
    O37      O        0.34190    0.60350    0.38800    1.000
    O38      O        0.51520    0.60650    0.37010    1.000
    O39      O        0.12620    0.65820    0.39700    1.000
    O40      O        0.96740    0.60870    0.36920    1.000
    C17      C        0.43690    0.58580    0.39980    1.000
    C18      C        0.46430    0.53930    0.45220    1.000
    C19      C        0.04280    0.60680    0.40100    1.000
    C20      C        0.02600    0.54690    0.45120    1.000
    O41      O        0.59250    0.33580    0.27280    1.000
    U16      U        0.61111    0.21192    0.19747    1.000
    U17      U        0.76106    0.30727    0.32202    1.000
    U18      U        0.90564    0.17151    0.20591    1.000
    O42      O        0.75650    0.12790    0.15280    1.000
    O43      O        0.93310    0.22830    0.29950    1.000
    O44      O        0.75820    0.23710    0.24310    1.000
    O45      O        0.65810    0.39650    0.38800    1.000
    O46      O        0.48480    0.39350    0.37010    1.000
    O47      O        0.87380    0.34180    0.39700    1.000
    O48      O        0.03260    0.39130    0.36920    1.000
    C21      C        0.56310    0.41420    0.39980    1.000
    C22      C        0.53570    0.46070    0.45220    1.000
    C23      C        0.95720    0.39320    0.40100    1.000
    C24      C        0.97400    0.45310    0.45120    1.000
    O49      O        0.09250    0.16420    0.22720    1.000
    U19      U        0.11111    0.28808    0.30253    1.000
    U20      U        0.26106    0.19273    0.17798    1.000
    U21      U        0.40564    0.32849    0.29409    1.000
    O50      O        0.25650    0.37210    0.34720    1.000
    O51      O        0.43310    0.27170    0.20050    1.000
    O52      O        0.25820    0.26290    0.25690    1.000
    O53      O        0.15810    0.10350    0.11200    1.000
    O54      O        0.98480    0.10650    0.12990    1.000
    O55      O        0.37380    0.15820    0.10300    1.000
    O56      O        0.53260    0.10870    0.13080    1.000
    C25      C        0.06310    0.08580    0.10020    1.000
    C26      C        0.03570    0.03930    0.04780    1.000
    C27      C        0.45720    0.10680    0.09900    1.000
    C28      C        0.47400    0.04690    0.04880    1.000
    O57      O        0.90750    0.83580    0.22720    1.000
    U22      U        0.88889    0.71192    0.30253    1.000
    U23      U        0.73894    0.80727    0.17798    1.000
    U24      U        0.59436    0.67151    0.29409    1.000
    O58      O        0.74350    0.62790    0.34720    1.000
    O59      O        0.56690    0.72830    0.20050    1.000
    O60      O        0.74180    0.73710    0.25690    1.000
    O61      O        0.84190    0.89650    0.11200    1.000
    O62      O        0.01520    0.89350    0.12990    1.000
    O63      O        0.62620    0.84180    0.10300    1.000
    O64      O        0.46740    0.89130    0.13080    1.000
    C29      C        0.93690    0.91420    0.10020    1.000
    C30      C        0.96430    0.96070    0.04780    1.000
    C31      C        0.54280    0.89320    0.09900    1.000
    C32      C        0.52600    0.95310    0.04880    1.000
    C33      C        0.57300    0.42100    0.50000    1.000
    H1       H        0.62160    0.36890    0.50000    1.000
    C34      C        0.94900    0.40900    0.50000    1.000
    H2       H        0.91380    0.34710    0.50000    1.000
    C35      C        0.42700    0.57900    0.50000    1.000
    H3       H        0.37840    0.63110    0.50000    1.000
    C36      C        0.05100    0.59100    0.50000    1.000
    H4       H        0.08620    0.65290    0.50000    1.000
    C37      C        0.92700    0.92100    0.00000    1.000
    H5       H        0.87840    0.86890    0.00000    1.000
    C38      C        0.55100    0.90900    0.00000    1.000
    H6       H        0.58620    0.84710    0.00000    1.000
    C39      C        0.07300    0.07900    0.00000    1.000
    H7       H        0.12160    0.13110    0.00000    1.000
    C40      C        0.44900    0.09100    0.00000    1.000
    H8       H        0.41380    0.15290    0.00000    1.000
