# CIF file generated by openbabel 3.1.0, see https://openbabel.org
data_I
_chemical_name_common 'image0'
_cell_length_a 10.626
_cell_length_b 10.626
_cell_length_c 25.718
_cell_angle_alpha 90
_cell_angle_beta 90
_cell_angle_gamma 90
_space_group_name_H-M_alt 'P 1'
_space_group_name_Hall 'P 1'
loop_
    _symmetry_equiv_pos_as_xyz
    x,y,z
loop_
    _atom_site_label
    _atom_site_type_symbol
    _atom_site_fract_x
    _atom_site_fract_y
    _atom_site_fract_z
    _atom_site_occupancy
    N1       N        0.03950    0.08830    0.16680    1.000
    C1       C        0.13300    0.01130    0.15410    1.000
    C2       C        0.17370    0.91170    0.18110    1.000
    C3       C        0.11800    0.88710    0.22800    1.000
    C4       C        0.02200    0.96620    0.24540    1.000
    C5       C        0.98280    0.06180    0.21350    1.000
    C6       C        0.88220    0.14370    0.22900    1.000
    C7       C        0.79760    0.21040    0.24240    1.000
    H1       H        0.17550    0.02870    0.12250    1.000
    H2       H        0.23920    0.85960    0.16810    1.000
    H3       H        0.14460    0.81750    0.24840    1.000
    H4       H        0.98460    0.95410    0.27860    1.000
    N2       N        0.53950    0.58830    0.66680    1.000
    C8       C        0.63300    0.51130    0.65410    1.000
    C9       C        0.67370    0.41170    0.68110    1.000
    C10      C        0.61800    0.38710    0.72800    1.000
    C11      C        0.52200    0.46620    0.74540    1.000
    C12      C        0.48280    0.56180    0.71350    1.000
    C13      C        0.38220    0.64370    0.72900    1.000
    C14      C        0.29760    0.71040    0.74240    1.000
    H5       H        0.67550    0.52870    0.62250    1.000
    H6       H        0.73920    0.35960    0.66810    1.000
    H7       H        0.64460    0.31750    0.74840    1.000
    H8       H        0.48460    0.45410    0.77860    1.000
    N3       N        0.46050    0.91170    0.66680    1.000
    C15      C        0.36700    0.98870    0.65410    1.000
    C16      C        0.32630    0.08830    0.68110    1.000
    C17      C        0.38200    0.11290    0.72800    1.000
    C18      C        0.47800    0.03380    0.74540    1.000
    C19      C        0.51720    0.93820    0.71350    1.000
    C20      C        0.61780    0.85630    0.72900    1.000
    C21      C        0.70240    0.78960    0.74240    1.000
    H9       H        0.32450    0.97130    0.62250    1.000
    H10      H        0.26080    0.14040    0.66810    1.000
    H11      H        0.35540    0.18250    0.74840    1.000
    H12      H        0.51540    0.04590    0.77860    1.000
    N4       N        0.96050    0.41170    0.16680    1.000
    C22      C        0.86700    0.48870    0.15410    1.000
    C23      C        0.82630    0.58830    0.18110    1.000
    C24      C        0.88200    0.61290    0.22800    1.000
    C25      C        0.97800    0.53380    0.24540    1.000
    C26      C        0.01720    0.43820    0.21350    1.000
    C27      C        0.11780    0.35630    0.22900    1.000
    C28      C        0.20240    0.28960    0.24240    1.000
    H13      H        0.82450    0.47130    0.12250    1.000
    H14      H        0.76080    0.64040    0.16810    1.000
    H15      H        0.85540    0.68250    0.24840    1.000
    H16      H        0.01540    0.54590    0.27860    1.000
    N5       N        0.66170    0.28950    0.41680    1.000
    C29      C        0.73870    0.38300    0.40410    1.000
    C30      C        0.83830    0.42370    0.43110    1.000
    C31      C        0.86290    0.36800    0.47800    1.000
    C32      C        0.78380    0.27200    0.49540    1.000
    C33      C        0.68820    0.23280    0.46350    1.000
    C34      C        0.60630    0.13220    0.47900    1.000
    C35      C        0.53960    0.04760    0.49240    1.000
    H17      H        0.72130    0.42550    0.37250    1.000
    H18      H        0.89040    0.48920    0.41810    1.000
    H19      H        0.93250    0.39460    0.49840    1.000
    H20      H        0.79590    0.23460    0.52860    1.000
    N6       N        0.16170    0.78950    0.91680    1.000
    C36      C        0.23870    0.88300    0.90410    1.000
    C37      C        0.33830    0.92370    0.93110    1.000
    C38      C        0.36290    0.86800    0.97800    1.000
    C39      C        0.28380    0.77200    0.99540    1.000
    C40      C        0.18820    0.73280    0.96350    1.000
    C41      C        0.10630    0.63220    0.97900    1.000
    C42      C        0.03960    0.54760    0.99240    1.000
    H21      H        0.22130    0.92550    0.87250    1.000
    H22      H        0.39040    0.98920    0.91810    1.000
    H23      H        0.43250    0.89460    0.99840    1.000
    H24      H        0.29590    0.73460    0.02860    1.000
    N7       N        0.83830    0.71050    0.91680    1.000
    C43      C        0.76130    0.61700    0.90410    1.000
    C44      C        0.66170    0.57630    0.93110    1.000
    C45      C        0.63710    0.63200    0.97800    1.000
    C46      C        0.71620    0.72800    0.99540    1.000
    C47      C        0.81180    0.76720    0.96350    1.000
    C48      C        0.89370    0.86780    0.97900    1.000
    C49      C        0.96040    0.95240    0.99240    1.000
    H25      H        0.77870    0.57450    0.87250    1.000
    H26      H        0.60960    0.51080    0.91810    1.000
    H27      H        0.56750    0.60540    0.99840    1.000
    H28      H        0.70410    0.76540    0.02860    1.000
    N8       N        0.33830    0.21050    0.41680    1.000
    C50      C        0.26130    0.11700    0.40410    1.000
    C51      C        0.16170    0.07630    0.43110    1.000
    C52      C        0.13710    0.13200    0.47800    1.000
    C53      C        0.21620    0.22800    0.49540    1.000
    C54      C        0.31180    0.26720    0.46350    1.000
    C55      C        0.39370    0.36780    0.47900    1.000
    C56      C        0.46040    0.45240    0.49240    1.000
    H29      H        0.27870    0.07450    0.37250    1.000
    H30      H        0.10960    0.01080    0.41810    1.000
    H31      H        0.06750    0.10540    0.49840    1.000
    H32      H        0.20410    0.26540    0.52860    1.000
    N9       N        0.96050    0.91170    0.83320    1.000
    C57      C        0.86700    0.98870    0.84590    1.000
    C58      C        0.82630    0.08830    0.81890    1.000
    C59      C        0.88200    0.11290    0.77200    1.000
    C60      C        0.97800    0.03380    0.75460    1.000
    C61      C        0.01720    0.93820    0.78650    1.000
    C62      C        0.11780    0.85630    0.77100    1.000
    C63      C        0.20240    0.78960    0.75760    1.000
    H33      H        0.82450    0.97130    0.87750    1.000
    H34      H        0.76080    0.14040    0.83190    1.000
    H35      H        0.85540    0.18250    0.75160    1.000
    H36      H        0.01540    0.04590    0.72140    1.000
    N10      N        0.46050    0.41170    0.33320    1.000
    C64      C        0.36700    0.48870    0.34590    1.000
    C65      C        0.32630    0.58830    0.31890    1.000
    C66      C        0.38200    0.61290    0.27200    1.000
    C67      C        0.47800    0.53380    0.25460    1.000
    C68      C        0.51720    0.43820    0.28650    1.000
    C69      C        0.61780    0.35630    0.27100    1.000
    C70      C        0.70240    0.28960    0.25760    1.000
    H37      H        0.32450    0.47130    0.37750    1.000
    H38      H        0.26080    0.64040    0.33190    1.000
    H39      H        0.35540    0.68250    0.25160    1.000
    H40      H        0.51540    0.54590    0.22140    1.000
    N11      N        0.53950    0.08830    0.33320    1.000
    C71      C        0.63300    0.01130    0.34590    1.000
    C72      C        0.67370    0.91170    0.31890    1.000
    C73      C        0.61800    0.88710    0.27200    1.000
    C74      C        0.52200    0.96620    0.25460    1.000
    C75      C        0.48280    0.06180    0.28650    1.000
    C76      C        0.38220    0.14370    0.27100    1.000
    C77      C        0.29760    0.21040    0.25760    1.000
    H41      H        0.67550    0.02870    0.37750    1.000
    H42      H        0.73920    0.85960    0.33190    1.000
    H43      H        0.64460    0.81750    0.25160    1.000
    H44      H        0.48460    0.95410    0.22140    1.000
    N12      N        0.03950    0.58830    0.83320    1.000
    C78      C        0.13300    0.51130    0.84590    1.000
    C79      C        0.17370    0.41170    0.81890    1.000
    C80      C        0.11800    0.38710    0.77200    1.000
    C81      C        0.02200    0.46620    0.75460    1.000
    C82      C        0.98280    0.56180    0.78650    1.000
    C83      C        0.88220    0.64370    0.77100    1.000
    C84      C        0.79760    0.71040    0.75760    1.000
    H45      H        0.17550    0.52870    0.87750    1.000
    H46      H        0.23920    0.35960    0.83190    1.000
    H47      H        0.14460    0.31750    0.75160    1.000
    H48      H        0.98460    0.45410    0.72140    1.000
    N13      N        0.33830    0.71050    0.58320    1.000
    C85      C        0.26130    0.61700    0.59590    1.000
    C86      C        0.16170    0.57630    0.56890    1.000
    C87      C        0.13710    0.63200    0.52200    1.000
    C88      C        0.21620    0.72800    0.50460    1.000
    C89      C        0.31180    0.76720    0.53650    1.000
    C90      C        0.39370    0.86780    0.52100    1.000
    C91      C        0.46040    0.95240    0.50760    1.000
    H49      H        0.27870    0.57450    0.62750    1.000
    H50      H        0.10960    0.51080    0.58190    1.000
    H51      H        0.06750    0.60540    0.50160    1.000
    H52      H        0.20410    0.76540    0.47140    1.000
    N14      N        0.83830    0.21050    0.08320    1.000
    C92      C        0.76130    0.11700    0.09590    1.000
    C93      C        0.66170    0.07630    0.06890    1.000
    C94      C        0.63710    0.13200    0.02200    1.000
    C95      C        0.71620    0.22800    0.00460    1.000
    C96      C        0.81180    0.26720    0.03650    1.000
    C97      C        0.89370    0.36780    0.02100    1.000
    C98      C        0.96040    0.45240    0.00760    1.000
    H53      H        0.77870    0.07450    0.12750    1.000
    H54      H        0.60960    0.01080    0.08190    1.000
    H55      H        0.56750    0.10540    0.00160    1.000
    H56      H        0.70410    0.26540    0.97140    1.000
    N15      N        0.16170    0.28950    0.08320    1.000
    C99      C        0.23870    0.38300    0.09590    1.000
    C100     C        0.33830    0.42370    0.06890    1.000
    C101     C        0.36290    0.36800    0.02200    1.000
    C102     C        0.28380    0.27200    0.00460    1.000
    C103     C        0.18820    0.23280    0.03650    1.000
    C104     C        0.10630    0.13220    0.02100    1.000
    C105     C        0.03960    0.04760    0.00760    1.000
    H57      H        0.22130    0.42550    0.12750    1.000
    H58      H        0.39040    0.48920    0.08190    1.000
    H59      H        0.43250    0.39460    0.00160    1.000
    H60      H        0.29590    0.23460    0.97140    1.000
    N16      N        0.66170    0.78950    0.58320    1.000
    C106     C        0.73870    0.88300    0.59590    1.000
    C107     C        0.83830    0.92370    0.56890    1.000
    C108     C        0.86290    0.86800    0.52200    1.000
    C109     C        0.78380    0.77200    0.50460    1.000
    C110     C        0.68820    0.73280    0.53650    1.000
    C111     C        0.60630    0.63220    0.52100    1.000
    C112     C        0.53960    0.54760    0.50760    1.000
    H61      H        0.72130    0.92550    0.62750    1.000
    H62      H        0.89040    0.98920    0.58190    1.000
    H63      H        0.93250    0.89460    0.50160    1.000
    H64      H        0.79590    0.73460    0.47140    1.000
    Cu1      Cu       0.50000    0.25000    0.37500    1.000
    Cu2      Cu       0.00000    0.75000    0.87500    1.000
    Cu3      Cu       0.50000    0.75000    0.62500    1.000
    Cu4      Cu       0.00000    0.25000    0.12500    1.000
