# CIF file generated by openbabel 3.1.0, see https://openbabel.org
data_I
_chemical_name_common 'image0'
_cell_length_a 17.6943
_cell_length_b 17.6943
_cell_length_c 13.2921
_cell_angle_alpha 90
_cell_angle_beta 90
_cell_angle_gamma 120
_space_group_name_H-M_alt 'P 1'
_space_group_name_Hall 'P 1'
loop_
    _symmetry_equiv_pos_as_xyz
    x,y,z
loop_
    _atom_site_label
    _atom_site_type_symbol
    _atom_site_fract_x
    _atom_site_fract_y
    _atom_site_fract_z
    _atom_site_occupancy
    Cu1      Cu       0.13309    0.57526    0.68047    1.000
    Cu2      Cu       0.13363    0.58025    0.43051    1.000
    N1       N        0.90290    0.50370    0.29320    1.000
    N2       N        0.09930    0.50590    0.31500    1.000
    O1       O        0.17244    0.63846    0.55750    1.000
    H1       H        0.17800    0.68500    0.55900    1.000
    O2       O        0.98490    0.43360    0.20050    1.000
    O3       O        0.69950    0.50100    0.27740    1.000
    O4       O        0.01460    0.57060    0.41170    1.000
    O5       O        0.29620    0.49880    0.33360    1.000
    O6       O        0.23670    0.56110    0.42550    1.000
    O7       O        0.76250    0.44100    0.18550    1.000
    C1       C        0.02260    0.48240    0.27820    1.000
    C2       C        0.97620    0.52250    0.33520    1.000
    C3       C        0.16240    0.48480    0.27290    1.000
    H2       H        0.13440    0.42030    0.26360    1.000
    C4       C        0.23770    0.51590    0.35060    1.000
    C5       C        0.19900    0.53130    0.17110    1.000
    H3       H        0.15070    0.51590    0.12420    1.000
    H4       H        0.23850    0.51290    0.14310    1.000
    H5       H        0.23100    0.59460    0.18160    1.000
    C6       C        0.76240    0.48840    0.25910    1.000
    C7       C        0.88700    0.63590    0.30880    1.000
    H6       H        0.93870    0.66640    0.35180    1.000
    H7       H        0.84470    0.65400    0.32670    1.000
    H8       H        0.90420    0.65040    0.23820    1.000
    C8       C        0.84470    0.53500    0.32430    1.000
    H9       H        0.82880    0.52020    0.39670    1.000
    Cu3      Cu       0.42474    0.55783    0.68047    1.000
    Cu4      Cu       0.41975    0.55338    0.43051    1.000
    N3       N        0.49630    0.39920    0.29320    1.000
    N4       N        0.49410    0.59340    0.31500    1.000
    O8       O        0.36154    0.53398    0.55750    1.000
    H10      H        0.31500    0.49300    0.55900    1.000
    O9       O        0.56640    0.55130    0.20050    1.000
    O10      O        0.49900    0.19850    0.27740    1.000
    O11      O        0.42940    0.44400    0.41170    1.000
    O12      O        0.50120    0.79740    0.33360    1.000
    O13      O        0.43890    0.67560    0.42550    1.000
    O14      O        0.55900    0.32150    0.18550    1.000
    C9       C        0.51760    0.54020    0.27820    1.000
    C10      C        0.47750    0.45370    0.33520    1.000
    C11      C        0.51520    0.67760    0.27290    1.000
    H11      H        0.57970    0.71410    0.26360    1.000
    C12      C        0.48410    0.72180    0.35060    1.000
    C13      C        0.46870    0.66770    0.17110    1.000
    H12      H        0.48410    0.63480    0.12420    1.000
    H13      H        0.48710    0.72560    0.14310    1.000
    H14      H        0.40540    0.63640    0.18160    1.000
    C14      C        0.51160    0.27400    0.25910    1.000
    C15      C        0.36410    0.25110    0.30880    1.000
    H15      H        0.33360    0.27230    0.35180    1.000
    H16      H        0.34600    0.19070    0.32670    1.000
    H17      H        0.34960    0.25380    0.23820    1.000
    C16      C        0.46500    0.30970    0.32430    1.000
    H18      H        0.47980    0.30860    0.39670    1.000
    Cu5      Cu       0.44217    0.86691    0.68047    1.000
    Cu6      Cu       0.44662    0.86637    0.43051    1.000
    N5       N        0.60080    0.09710    0.29320    1.000
    N6       N        0.40660    0.90070    0.31500    1.000
    O15      O        0.46602    0.82756    0.55750    1.000
    H19      H        0.50700    0.82200    0.55900    1.000
    O16      O        0.44870    0.01510    0.20050    1.000
    O17      O        0.80150    0.30050    0.27740    1.000
    O18      O        0.55600    0.98540    0.41170    1.000
    O19      O        0.20260    0.70380    0.33360    1.000
    O20      O        0.32440    0.76330    0.42550    1.000
    O21      O        0.67850    0.23750    0.18550    1.000
    C17      C        0.45980    0.97740    0.27820    1.000
    C18      C        0.54630    0.02380    0.33520    1.000
    C19      C        0.32240    0.83760    0.27290    1.000
    H20      H        0.28590    0.86560    0.26360    1.000
    C20      C        0.27820    0.76230    0.35060    1.000
    C21      C        0.33230    0.80100    0.17110    1.000
    H21      H        0.36520    0.84930    0.12420    1.000
    H22      H        0.27440    0.76150    0.14310    1.000
    H23      H        0.36360    0.76900    0.18160    1.000
    C22      C        0.72600    0.23760    0.25910    1.000
    C23      C        0.74890    0.11300    0.30880    1.000
    H24      H        0.72770    0.06130    0.35180    1.000
    H25      H        0.80930    0.15530    0.32670    1.000
    H26      H        0.74620    0.09580    0.23820    1.000
    C24      C        0.69030    0.15530    0.32430    1.000
    H27      H        0.69140    0.17120    0.39670    1.000
    Cu7      Cu       0.86691    0.42474    0.18047    1.000
    Cu8      Cu       0.86637    0.41975    0.93051    1.000
    N7       N        0.09710    0.49630    0.79320    1.000
    N8       N        0.90070    0.49410    0.81500    1.000
    O22      O        0.82756    0.36154    0.05750    1.000
    H28      H        0.82200    0.31500    0.05900    1.000
    O23      O        0.01510    0.56640    0.70050    1.000
    O24      O        0.30050    0.49900    0.77740    1.000
    O25      O        0.98540    0.42940    0.91170    1.000
    O26      O        0.70380    0.50120    0.83360    1.000
    O27      O        0.76330    0.43890    0.92550    1.000
    O28      O        0.23750    0.55900    0.68550    1.000
    C25      C        0.97740    0.51760    0.77820    1.000
    C26      C        0.02380    0.47750    0.83520    1.000
    C27      C        0.83760    0.51520    0.77290    1.000
    H29      H        0.86560    0.57970    0.76360    1.000
    C28      C        0.76230    0.48410    0.85060    1.000
    C29      C        0.80100    0.46870    0.67110    1.000
    H30      H        0.84930    0.48410    0.62420    1.000
    H31      H        0.76150    0.48710    0.64310    1.000
    H32      H        0.76900    0.40540    0.68160    1.000
    C30      C        0.23760    0.51160    0.75910    1.000
    C31      C        0.11300    0.36410    0.80880    1.000
    H33      H        0.06130    0.33360    0.85180    1.000
    H34      H        0.15530    0.34600    0.82670    1.000
    H35      H        0.09580    0.34960    0.73820    1.000
    C32      C        0.15530    0.46500    0.82430    1.000
    H36      H        0.17120    0.47980    0.89670    1.000
    Cu9      Cu       0.57526    0.44217    0.18047    1.000
    Cu10     Cu       0.58025    0.44662    0.93051    1.000
    N9       N        0.50370    0.60080    0.79320    1.000
    N10      N        0.50590    0.40660    0.81500    1.000
    O29      O        0.63846    0.46602    0.05750    1.000
    H37      H        0.68500    0.50700    0.05900    1.000
    O30      O        0.43360    0.44870    0.70050    1.000
    O31      O        0.50100    0.80150    0.77740    1.000
    O32      O        0.57060    0.55600    0.91170    1.000
    O33      O        0.49880    0.20260    0.83360    1.000
    O34      O        0.56110    0.32440    0.92550    1.000
    O35      O        0.44100    0.67850    0.68550    1.000
    C33      C        0.48240    0.45980    0.77820    1.000
    C34      C        0.52250    0.54630    0.83520    1.000
    C35      C        0.48480    0.32240    0.77290    1.000
    H38      H        0.42030    0.28590    0.76360    1.000
    C36      C        0.51590    0.27820    0.85060    1.000
    C37      C        0.53130    0.33230    0.67110    1.000
    H39      H        0.51590    0.36520    0.62420    1.000
    H40      H        0.51290    0.27440    0.64310    1.000
    H41      H        0.59460    0.36360    0.68160    1.000
    C38      C        0.48840    0.72600    0.75910    1.000
    C39      C        0.63590    0.74890    0.80880    1.000
    H42      H        0.66640    0.72770    0.85180    1.000
    H43      H        0.65400    0.80930    0.82670    1.000
    H44      H        0.65040    0.74620    0.73820    1.000
    C40      C        0.53500    0.69030    0.82430    1.000
    H45      H        0.52020    0.69140    0.89670    1.000
    Cu11     Cu       0.55783    0.13309    0.18047    1.000
    Cu12     Cu       0.55338    0.13363    0.93051    1.000
    N11      N        0.39920    0.90290    0.79320    1.000
    N12      N        0.59340    0.09930    0.81500    1.000
    O36      O        0.53398    0.17244    0.05750    1.000
    H46      H        0.49300    0.17800    0.05900    1.000
    O37      O        0.55130    0.98490    0.70050    1.000
    O38      O        0.19850    0.69950    0.77740    1.000
    O39      O        0.44400    0.01460    0.91170    1.000
    O40      O        0.79740    0.29620    0.83360    1.000
    O41      O        0.67560    0.23670    0.92550    1.000
    O42      O        0.32150    0.76250    0.68550    1.000
    C41      C        0.54020    0.02260    0.77820    1.000
    C42      C        0.45370    0.97620    0.83520    1.000
    C43      C        0.67760    0.16240    0.77290    1.000
    H47      H        0.71410    0.13440    0.76360    1.000
    C44      C        0.72180    0.23770    0.85060    1.000
    C45      C        0.66770    0.19900    0.67110    1.000
    H48      H        0.63480    0.15070    0.62420    1.000
    H49      H        0.72560    0.23850    0.64310    1.000
    H50      H        0.63640    0.23100    0.68160    1.000
    C46      C        0.27400    0.76240    0.75910    1.000
    C47      C        0.25110    0.88700    0.80880    1.000
    H51      H        0.27230    0.93870    0.85180    1.000
    H52      H        0.19070    0.84470    0.82670    1.000
    H53      H        0.25380    0.90420    0.73820    1.000
    C48      C        0.30970    0.84470    0.82430    1.000
    H54      H        0.30860    0.82880    0.89670    1.000
    Ca1      Ca       0.33333    0.66667    0.55630    1.000
    Ca2      Ca       0.66667    0.33333    0.05630    1.000
