# CIF file generated by openbabel 3.1.0, see https://openbabel.org
data_I
_chemical_name_common 'image0'
_cell_length_a 22.6505
_cell_length_b 11.2352
_cell_length_c 12.7961
_cell_angle_alpha 90
_cell_angle_beta 90
_cell_angle_gamma 90
_space_group_name_H-M_alt 'P 1'
_space_group_name_Hall 'P 1'
loop_
    _symmetry_equiv_pos_as_xyz
    x,y,z
loop_
    _atom_site_label
    _atom_site_type_symbol
    _atom_site_fract_x
    _atom_site_fract_y
    _atom_site_fract_z
    _atom_site_occupancy
    Ca1      Ca       0.43405    0.62210    0.07690    1.000
    Ca2      Ca       0.50857    0.49376    0.31274    1.000
    S1       S        0.50879    0.03255    0.22685    1.000
    S2       S        0.27489    0.48743    0.40768    1.000
    C1       C        0.28300    0.49970    0.20790    1.000
    H1       H        0.29850    0.50280    0.13890    1.000
    C2       C        0.22239    0.50950    0.23170    1.000
    H2       H        0.19250    0.51790    0.18010    1.000
    O1       O        0.48510    0.44930    0.99200    1.000
    O2       O        0.41051    0.49610    0.21700    1.000
    C3       C        0.49555    0.78620    0.23570    1.000
    C4       C        0.38205    0.47350    0.29950    1.000
    O3       O        0.50929    0.29070    0.25280    1.000
    O4       O        0.49504    0.78990    0.13690    1.000
    O5       O        0.48640    0.69480    0.28930    1.000
    O6       O        0.53030    0.52320    0.12960    1.000
    C5       C        0.31680    0.48510    0.29530    1.000
    O7       O        0.40658    0.44330    0.38320    1.000
    O8       O        0.52925    0.29870    0.42280    1.000
    O9       O        0.10931    0.49480    0.32660    1.000
    O10      O        0.14891    0.54850    0.48030    1.000
    C6       C        0.50683    0.89930    0.29300    1.000
    C7       C        0.21089    0.50590    0.33670    1.000
    C8       C        0.52090    0.10960    0.34130    1.000
    C9       C        0.15150    0.51740    0.38610    1.000
    C10      C        0.52340    0.03490    0.42610    1.000
    H3       H        0.53010    0.06120    0.49570    1.000
    C11      C        0.52070    0.24150    0.33810    1.000
    C12      C        0.51480    0.91450    0.39850    1.000
    H4       H        0.51460    0.85100    0.44750    1.000
    C13      C        0.52744    0.44740    0.05660    1.000
    C14      C        0.57420    0.35290    0.04650    1.000
    H5       H        0.61270    0.38640    0.06560    1.000
    H6       H        0.57550    0.32440    0.97410    1.000
    H7       H        0.56480    0.28640    0.09310    1.000
    Ca3      Ca       0.56595    0.37790    0.57690    1.000
    Ca4      Ca       0.49143    0.50624    0.81274    1.000
    S3       S        0.49121    0.96745    0.72685    1.000
    S4       S        0.72511    0.51257    0.90768    1.000
    C15      C        0.71700    0.50030    0.70790    1.000
    H8       H        0.70150    0.49720    0.63890    1.000
    C16      C        0.77761    0.49050    0.73170    1.000
    H9       H        0.80750    0.48210    0.68010    1.000
    O11      O        0.51490    0.55070    0.49200    1.000
    O12      O        0.58949    0.50390    0.71700    1.000
    C17      C        0.50445    0.21380    0.73570    1.000
    C18      C        0.61795    0.52650    0.79950    1.000
    O13      O        0.49071    0.70930    0.75280    1.000
    O14      O        0.50496    0.21010    0.63690    1.000
    O15      O        0.51360    0.30520    0.78930    1.000
    O16      O        0.46970    0.47680    0.62960    1.000
    C19      C        0.68320    0.51490    0.79530    1.000
    O17      O        0.59342    0.55670    0.88320    1.000
    O18      O        0.47075    0.70130    0.92280    1.000
    O19      O        0.89069    0.50520    0.82660    1.000
    O20      O        0.85109    0.45150    0.98030    1.000
    C20      C        0.49317    0.10070    0.79300    1.000
    C21      C        0.78911    0.49410    0.83670    1.000
    C22      C        0.47910    0.89040    0.84130    1.000
    C23      C        0.84850    0.48260    0.88610    1.000
    C24      C        0.47660    0.96510    0.92610    1.000
    H10      H        0.46990    0.93880    0.99570    1.000
    C25      C        0.47930    0.75850    0.83810    1.000
    C26      C        0.48520    0.08550    0.89850    1.000
    H11      H        0.48540    0.14900    0.94750    1.000
    C27      C        0.47256    0.55260    0.55660    1.000
    C28      C        0.42580    0.64710    0.54650    1.000
    H12      H        0.38730    0.61360    0.56560    1.000
    H13      H        0.42450    0.67560    0.47410    1.000
    H14      H        0.43520    0.71360    0.59310    1.000
    Ca5      Ca       0.93405    0.37790    0.07690    1.000
    Ca6      Ca       0.00857    0.50624    0.31274    1.000
    S5       S        0.00879    0.96745    0.22685    1.000
    S6       S        0.77489    0.51257    0.40768    1.000
    C29      C        0.78300    0.50030    0.20790    1.000
    H15      H        0.79850    0.49720    0.13890    1.000
    C30      C        0.72239    0.49050    0.23170    1.000
    H16      H        0.69250    0.48210    0.18010    1.000
    O21      O        0.98510    0.55070    0.99200    1.000
    O22      O        0.91051    0.50390    0.21700    1.000
    C31      C        0.99555    0.21380    0.23570    1.000
    C32      C        0.88205    0.52650    0.29950    1.000
    O23      O        0.00929    0.70930    0.25280    1.000
    O24      O        0.99504    0.21010    0.13690    1.000
    O25      O        0.98640    0.30520    0.28930    1.000
    O26      O        0.03030    0.47680    0.12960    1.000
    C33      C        0.81680    0.51490    0.29530    1.000
    O27      O        0.90658    0.55670    0.38320    1.000
    O28      O        0.02925    0.70130    0.42280    1.000
    O29      O        0.60931    0.50520    0.32660    1.000
    O30      O        0.64891    0.45150    0.48030    1.000
    C34      C        0.00683    0.10070    0.29300    1.000
    C35      C        0.71089    0.49410    0.33670    1.000
    C36      C        0.02090    0.89040    0.34130    1.000
    C37      C        0.65150    0.48260    0.38610    1.000
    C38      C        0.02340    0.96510    0.42610    1.000
    H17      H        0.03010    0.93880    0.49570    1.000
    C39      C        0.02070    0.75850    0.33810    1.000
    C40      C        0.01480    0.08550    0.39850    1.000
    H18      H        0.01460    0.14900    0.44750    1.000
    C41      C        0.02744    0.55260    0.05660    1.000
    C42      C        0.07420    0.64710    0.04650    1.000
    H19      H        0.11270    0.61360    0.06560    1.000
    H20      H        0.07550    0.67560    0.97410    1.000
    H21      H        0.06480    0.71360    0.09310    1.000
    Ca7      Ca       0.06595    0.62210    0.57690    1.000
    Ca8      Ca       0.99143    0.49376    0.81274    1.000
    S7       S        0.99121    0.03255    0.72685    1.000
    S8       S        0.22511    0.48743    0.90768    1.000
    C43      C        0.21700    0.49970    0.70790    1.000
    H22      H        0.20150    0.50280    0.63890    1.000
    C44      C        0.27761    0.50950    0.73170    1.000
    H23      H        0.30750    0.51790    0.68010    1.000
    O31      O        0.01490    0.44930    0.49200    1.000
    O32      O        0.08949    0.49610    0.71700    1.000
    C45      C        0.00445    0.78620    0.73570    1.000
    C46      C        0.11795    0.47350    0.79950    1.000
    O33      O        0.99071    0.29070    0.75280    1.000
    O34      O        0.00496    0.78990    0.63690    1.000
    O35      O        0.01360    0.69480    0.78930    1.000
    O36      O        0.96970    0.52320    0.62960    1.000
    C47      C        0.18320    0.48510    0.79530    1.000
    O37      O        0.09342    0.44330    0.88320    1.000
    O38      O        0.97075    0.29870    0.92280    1.000
    O39      O        0.39069    0.49480    0.82660    1.000
    O40      O        0.35109    0.54850    0.98030    1.000
    C48      C        0.99317    0.89930    0.79300    1.000
    C49      C        0.28911    0.50590    0.83670    1.000
    C50      C        0.97910    0.10960    0.84130    1.000
    C51      C        0.34850    0.51740    0.88610    1.000
    C52      C        0.97660    0.03490    0.92610    1.000
    H24      H        0.96990    0.06120    0.99570    1.000
    C53      C        0.97930    0.24150    0.83810    1.000
    C54      C        0.98520    0.91450    0.89850    1.000
    H25      H        0.98540    0.85100    0.94750    1.000
    C55      C        0.97256    0.44740    0.55660    1.000
    C56      C        0.92580    0.35290    0.54650    1.000
    H26      H        0.88730    0.38640    0.56560    1.000
    H27      H        0.92450    0.32440    0.47410    1.000
    H28      H        0.93520    0.28640    0.59310    1.000
