# CIF file generated by openbabel 3.1.0, see https://openbabel.org
data_I
_chemical_name_common 'image0'
_cell_length_a 15.251
_cell_length_b 6.699
_cell_length_c 14.382
_cell_angle_alpha 90
_cell_angle_beta 90
_cell_angle_gamma 90
_space_group_name_H-M_alt 'P 1'
_space_group_name_Hall 'P 1'
loop_
    _symmetry_equiv_pos_as_xyz
    x,y,z
loop_
    _atom_site_label
    _atom_site_type_symbol
    _atom_site_fract_x
    _atom_site_fract_y
    _atom_site_fract_z
    _atom_site_occupancy
    O1       O        0.85330    0.08530    0.63750    1.000
    O2       O        0.70430    0.58300    0.74340    1.000
    O3       O        0.64670    0.91470    0.13750    1.000
    O4       O        0.79570    0.41700    0.24340    1.000
    O5       O        0.14670    0.58530    0.36250    1.000
    O6       O        0.29570    0.08300    0.25660    1.000
    O7       O        0.35330    0.41470    0.86250    1.000
    O8       O        0.20430    0.91700    0.75660    1.000
    O9       O        0.14670    0.91470    0.36250    1.000
    O10      O        0.29570    0.41700    0.25660    1.000
    O11      O        0.35330    0.08530    0.86250    1.000
    O12      O        0.20430    0.58300    0.75660    1.000
    O13      O        0.85330    0.41470    0.63750    1.000
    O14      O        0.70430    0.91700    0.74340    1.000
    O15      O        0.64670    0.58530    0.13750    1.000
    O16      O        0.79570    0.08300    0.24340    1.000
    Gd1      Gd       0.80109    0.75000    0.62073    1.000
    O17      O        0.84940    0.75000    0.46300    1.000
    O18      O        0.89080    0.75000    0.75710    1.000
    N1       N        0.96550    0.75000    0.59540    1.000
    C1       C        0.92850    0.75000    0.43400    1.000
    Na1      Na       0.73570    0.75000    0.31060    1.000
    C2       C        0.97030    0.75000    0.76090    1.000
    C3       C        0.99640    0.75000    0.50730    1.000
    C4       C        0.01970    0.75000    0.66790    1.000
    O19      O        0.94900    0.75000    0.35160    1.000
    O20      O        0.01940    0.75000    0.82990    1.000
    C5       C        0.08720    0.75000    0.49480    1.000
    C6       C        0.10650    0.75000    0.65260    1.000
    N2       N        0.14230    0.75000    0.56590    1.000
    C7       C        0.12850    0.75000    0.39940    1.000
    C8       C        0.17300    0.75000    0.73000    1.000
    Gd2      Gd       0.69891    0.25000    0.12073    1.000
    O21      O        0.65060    0.25000    0.96300    1.000
    O22      O        0.60920    0.25000    0.25710    1.000
    N3       N        0.53450    0.25000    0.09540    1.000
    C9       C        0.57150    0.25000    0.93400    1.000
    Na2      Na       0.76430    0.25000    0.81060    1.000
    C10      C        0.52970    0.25000    0.26090    1.000
    C11      C        0.50360    0.25000    0.00730    1.000
    C12      C        0.48030    0.25000    0.16790    1.000
    O23      O        0.55100    0.25000    0.85160    1.000
    O24      O        0.48060    0.25000    0.32990    1.000
    C13      C        0.41280    0.25000    0.99480    1.000
    C14      C        0.39350    0.25000    0.15260    1.000
    N4       N        0.35770    0.25000    0.06590    1.000
    C15      C        0.37150    0.25000    0.89940    1.000
    C16      C        0.32700    0.25000    0.23000    1.000
    Gd3      Gd       0.19891    0.25000    0.37927    1.000
    O25      O        0.15060    0.25000    0.53700    1.000
    O26      O        0.10920    0.25000    0.24290    1.000
    N5       N        0.03450    0.25000    0.40460    1.000
    C17      C        0.07150    0.25000    0.56600    1.000
    Na3      Na       0.26430    0.25000    0.68940    1.000
    C18      C        0.02970    0.25000    0.23910    1.000
    C19      C        0.00360    0.25000    0.49270    1.000
    C20      C        0.98030    0.25000    0.33210    1.000
    O27      O        0.05100    0.25000    0.64840    1.000
    O28      O        0.98060    0.25000    0.17010    1.000
    C21      C        0.91280    0.25000    0.50520    1.000
    C22      C        0.89350    0.25000    0.34740    1.000
    N6       N        0.85770    0.25000    0.43410    1.000
    C23      C        0.87150    0.25000    0.60060    1.000
    C24      C        0.82700    0.25000    0.27000    1.000
    Gd4      Gd       0.30109    0.75000    0.87927    1.000
    O29      O        0.34940    0.75000    0.03700    1.000
    O30      O        0.39080    0.75000    0.74290    1.000
    N7       N        0.46550    0.75000    0.90460    1.000
    C25      C        0.42850    0.75000    0.06600    1.000
    Na4      Na       0.23570    0.75000    0.18940    1.000
    C26      C        0.47030    0.75000    0.73910    1.000
    C27      C        0.49640    0.75000    0.99270    1.000
    C28      C        0.51970    0.75000    0.83210    1.000
    O31      O        0.44900    0.75000    0.14840    1.000
    O32      O        0.51940    0.75000    0.67010    1.000
    C29      C        0.58720    0.75000    0.00520    1.000
    C30      C        0.60650    0.75000    0.84740    1.000
    N8       N        0.64230    0.75000    0.93410    1.000
    C31      C        0.62850    0.75000    0.10060    1.000
    C32      C        0.67300    0.75000    0.77000    1.000
