# CIF file generated by openbabel 3.1.0, see https://openbabel.org
data_I
_chemical_name_common 'image0'
_cell_length_a 9.0897
_cell_length_b 9.2075
_cell_length_c 9.2914
_cell_angle_alpha 76.546
_cell_angle_beta 87.299
_cell_angle_gamma 89.411
_space_group_name_H-M_alt 'P 1'
_space_group_name_Hall 'P 1'
loop_
    _symmetry_equiv_pos_as_xyz
    x,y,z
loop_
    _atom_site_label
    _atom_site_type_symbol
    _atom_site_fract_x
    _atom_site_fract_y
    _atom_site_fract_z
    _atom_site_occupancy
    P1       P        0.31307    0.61869    0.59715    1.000
    P2       P        0.88274    0.62792    0.82308    1.000
    P3       P        0.14609    0.16829    0.64572    1.000
    Al1      Al       0.06552    0.86764    0.58746    1.000
    Al2      Al       0.66035    0.62558    0.57431    1.000
    Al3      Al       0.11894    0.39120    0.84198    1.000
    F1       F        0.10575    0.01415    0.41624    1.000
    O1       O        0.23836    0.76795    0.57013    1.000
    O2       O        0.99848    0.74450    0.76241    1.000
    O3       O        0.15159    0.99888    0.68785    1.000
    O4       O        0.74714    0.64290    0.73030    1.000
    O5       O        0.03237    0.23351    0.53359    1.000
    O6       O        0.94541    0.47048    0.83720    1.000
    O7       O        0.11800    0.22281    0.78965    1.000
    O8       O        0.24970    0.51027    0.73636    1.000
    O9       O        0.47539    0.63910    0.62300    1.000
    O10      O        0.30310    0.54790    0.46377    1.000
    O11      O        0.29997    0.23046    0.58094    1.000
    O12      O        0.82543    0.64430    0.97658    1.000
    P4       P        0.68693    0.38131    0.40285    1.000
    P5       P        0.11726    0.37208    0.17692    1.000
    P6       P        0.85391    0.83171    0.35428    1.000
    Al4      Al       0.93448    0.13236    0.41254    1.000
    Al5      Al       0.33965    0.37442    0.42569    1.000
    Al6      Al       0.88106    0.60880    0.15802    1.000
    F2       F        0.89425    0.98585    0.58376    1.000
    O13      O        0.76164    0.23205    0.42987    1.000
    O14      O        0.00152    0.25550    0.23759    1.000
    O15      O        0.84841    0.00112    0.31215    1.000
    O16      O        0.25286    0.35710    0.26970    1.000
    O17      O        0.96763    0.76649    0.46641    1.000
    O18      O        0.05459    0.52952    0.16280    1.000
    O19      O        0.88200    0.77719    0.21035    1.000
    O20      O        0.75030    0.48973    0.26364    1.000
    O21      O        0.52461    0.36090    0.37700    1.000
    O22      O        0.69690    0.45210    0.53623    1.000
    O23      O        0.70003    0.76954    0.41906    1.000
    O24      O        0.17457    0.35570    0.02342    1.000
