# CIF file generated by openbabel 3.1.0, see https://openbabel.org
data_I
_chemical_name_common 'DUYRAR_clean'
_cell_length_a 20.471
_cell_length_b 23.426
_cell_length_c 29.406
_cell_angle_alpha 90
_cell_angle_beta 90
_cell_angle_gamma 90
_space_group_name_H-M_alt 'P 1'
_space_group_name_Hall 'P 1'
loop_
    _symmetry_equiv_pos_as_xyz
    x,y,z
loop_
    _atom_site_label
    _atom_site_type_symbol
    _atom_site_fract_x
    _atom_site_fract_y
    _atom_site_fract_z
    _atom_site_occupancy
    Nd1      Nd       0.40944    0.46772    0.31737    1.000
    Nd2      Nd       0.87861    0.80611    0.44806    1.000
    Nd3      Nd       0.50686    0.22860    0.35541    1.000
    Nd4      Nd       0.59056    0.03228    0.81737    1.000
    Nd5      Nd       0.12139    0.69389    0.94806    1.000
    Nd6      Nd       0.49314    0.27140    0.85541    1.000
    Nd7      Nd       0.90944    0.53228    0.18263    1.000
    Nd8      Nd       0.37861    0.19389    0.05194    1.000
    Nd9      Nd       0.00686    0.77140    0.14459    1.000
    Nd10     Nd       0.09056    0.96772    0.68263    1.000
    Nd11     Nd       0.62139    0.30611    0.55194    1.000
    Nd12     Nd       0.99314    0.72860    0.64459    1.000
    Nd13     Nd       0.59056    0.53228    0.68263    1.000
    Nd14     Nd       0.12139    0.19389    0.55194    1.000
    Nd15     Nd       0.49314    0.77140    0.64459    1.000
    Nd16     Nd       0.40944    0.96772    0.18263    1.000
    Nd17     Nd       0.87861    0.30611    0.05194    1.000
    Nd18     Nd       0.50686    0.72860    0.14459    1.000
    Nd19     Nd       0.09056    0.46772    0.81737    1.000
    Nd20     Nd       0.62139    0.80611    0.94806    1.000
    Nd21     Nd       0.99314    0.22860    0.85541    1.000
    Nd22     Nd       0.90944    0.03228    0.31737    1.000
    Nd23     Nd       0.37861    0.69389    0.44806    1.000
    Nd24     Nd       0.00686    0.27140    0.35541    1.000
    H1       H        0.63790    0.74200    0.51770    1.000
    H2       H        0.67420    0.70400    0.58530    1.000
    H3       H        0.78210    0.70920    0.60460    1.000
    H4       H        0.22140    0.57480    0.41540    1.000
    H5       H        0.13380    0.50930    0.40640    1.000
    H6       H        0.15410    0.42350    0.36730    1.000
    H7       H        0.60740    0.34860    0.23350    1.000
    H8       H        0.64510    0.42060    0.18530    1.000
    H9       H        0.59590    0.50880    0.18680    1.000
    H10      H        0.36210    0.75800    0.01770    1.000
    H11      H        0.32580    0.79600    0.08530    1.000
    H12      H        0.21790    0.79080    0.10460    1.000
    H13      H        0.77860    0.92520    0.91540    1.000
    H14      H        0.86620    0.99070    0.90640    1.000
    H15      H        0.84590    0.07650    0.86730    1.000
    H16      H        0.39260    0.15140    0.73350    1.000
    H17      H        0.35490    0.07940    0.68530    1.000
    H18      H        0.40410    0.99120    0.68680    1.000
    H19      H        0.13790    0.25800    0.98230    1.000
    H20      H        0.17420    0.29600    0.91470    1.000
    H21      H        0.28210    0.29080    0.89540    1.000
    H22      H        0.72140    0.42520    0.08460    1.000
    H23      H        0.63380    0.49070    0.09360    1.000
    H24      H        0.65410    0.57650    0.13270    1.000
    H25      H        0.10740    0.65140    0.26650    1.000
    H26      H        0.14510    0.57940    0.31470    1.000
    H27      H        0.09590    0.49120    0.31320    1.000
    H28      H        0.86210    0.24200    0.48230    1.000
    H29      H        0.82580    0.20400    0.41470    1.000
    H30      H        0.71790    0.20920    0.39540    1.000
    H31      H        0.27860    0.07480    0.58460    1.000
    H32      H        0.36620    0.00930    0.59360    1.000
    H33      H        0.34590    0.92350    0.63270    1.000
    H34      H        0.89260    0.84860    0.76650    1.000
    H35      H        0.85490    0.92060    0.81470    1.000
    H36      H        0.90410    0.00880    0.81320    1.000
    H37      H        0.36210    0.25800    0.48230    1.000
    H38      H        0.32580    0.29600    0.41470    1.000
    H39      H        0.21790    0.29080    0.39540    1.000
    H40      H        0.77860    0.42520    0.58460    1.000
    H41      H        0.86620    0.49070    0.59360    1.000
    H42      H        0.84590    0.57650    0.63270    1.000
    H43      H        0.39260    0.65140    0.76650    1.000
    H44      H        0.35490    0.57940    0.81470    1.000
    H45      H        0.40410    0.49120    0.81320    1.000
    H46      H        0.63790    0.24200    0.98230    1.000
    H47      H        0.67420    0.20400    0.91470    1.000
    H48      H        0.78210    0.20920    0.89540    1.000
    H49      H        0.22140    0.07480    0.08460    1.000
    H50      H        0.13380    0.00930    0.09360    1.000
    H51      H        0.15410    0.92350    0.13270    1.000
    H52      H        0.60740    0.84860    0.26650    1.000
    H53      H        0.64510    0.92060    0.31470    1.000
    H54      H        0.59590    0.00880    0.31320    1.000
    H55      H        0.86210    0.74200    0.01770    1.000
    H56      H        0.82580    0.70400    0.08530    1.000
    H57      H        0.71790    0.70920    0.10460    1.000
    H58      H        0.27860    0.57480    0.91540    1.000
    H59      H        0.36620    0.50930    0.90640    1.000
    H60      H        0.34590    0.42350    0.86730    1.000
    H61      H        0.89260    0.34860    0.73350    1.000
    H62      H        0.85490    0.42060    0.68530    1.000
    H63      H        0.90410    0.50880    0.68680    1.000
    H64      H        0.13790    0.75800    0.51770    1.000
    H65      H        0.17420    0.79600    0.58530    1.000
    H66      H        0.28210    0.79080    0.60460    1.000
    H67      H        0.72140    0.92520    0.41540    1.000
    H68      H        0.63380    0.99070    0.40640    1.000
    H69      H        0.65410    0.07650    0.36730    1.000
    H70      H        0.10740    0.15140    0.23350    1.000
    H71      H        0.14510    0.07940    0.18530    1.000
    H72      H        0.09590    0.99120    0.18680    1.000
    W1       W        0.87032    0.40150    0.36879    1.000
    W2       W        0.93428    0.52264    0.39952    1.000
    W3       W        0.81958    0.64046    0.42423    1.000
    W4       W        0.66103    0.62850    0.40754    1.000
    W5       W        0.59698    0.48772    0.37187    1.000
    W6       W        0.84832    0.59677    0.30516    1.000
    W7       W        0.67443    0.42243    0.45308    1.000
    W8       W        0.69004    0.57583    0.29036    1.000
    W9       W        0.85061    0.44608    0.47228    1.000
    W10      W        0.79241    0.47155    0.27240    1.000
    W11      W        0.73122    0.56275    0.49420    1.000
    W12      W        0.69352    0.38045    0.34877    1.000
    W13      W        0.12968    0.09850    0.86879    1.000
    W14      W        0.06572    0.97736    0.89952    1.000
    W15      W        0.18042    0.85954    0.92423    1.000
    W16      W        0.33897    0.87150    0.90754    1.000
    W17      W        0.40302    0.01228    0.87187    1.000
    W18      W        0.15168    0.90323    0.80516    1.000
    W19      W        0.32557    0.07757    0.95308    1.000
    W20      W        0.30996    0.92417    0.79036    1.000
    W21      W        0.14939    0.05392    0.97228    1.000
    W22      W        0.20759    0.02845    0.77240    1.000
    W23      W        0.26878    0.93725    0.99420    1.000
    W24      W        0.30648    0.11955    0.84877    1.000
    W25      W        0.37032    0.59850    0.13121    1.000
    W26      W        0.43428    0.47736    0.10048    1.000
    W27      W        0.31958    0.35954    0.07577    1.000
    W28      W        0.16103    0.37150    0.09246    1.000
    W29      W        0.09698    0.51228    0.12813    1.000
    W30      W        0.34832    0.40323    0.19484    1.000
    W31      W        0.17443    0.57757    0.04692    1.000
    W32      W        0.19004    0.42417    0.20964    1.000
    W33      W        0.35061    0.55392    0.02772    1.000
    W34      W        0.29241    0.52845    0.22760    1.000
    W35      W        0.23122    0.43725    0.00580    1.000
    W36      W        0.19352    0.61955    0.15123    1.000
    W37      W        0.62968    0.90150    0.63121    1.000
    W38      W        0.56572    0.02264    0.60048    1.000
    W39      W        0.68042    0.14046    0.57577    1.000
    W40      W        0.83897    0.12850    0.59246    1.000
    W41      W        0.90302    0.98772    0.62813    1.000
    W42      W        0.65168    0.09677    0.69484    1.000
    W43      W        0.82557    0.92243    0.54692    1.000
    W44      W        0.80996    0.07583    0.70964    1.000
    W45      W        0.64939    0.94608    0.52772    1.000
    W46      W        0.70759    0.97155    0.72760    1.000
    W47      W        0.76878    0.06275    0.50580    1.000
    W48      W        0.80648    0.88045    0.65123    1.000
    W49      W        0.12968    0.59850    0.63121    1.000
    W50      W        0.06572    0.47736    0.60048    1.000
    W51      W        0.18042    0.35954    0.57577    1.000
    W52      W        0.33897    0.37150    0.59246    1.000
    W53      W        0.40302    0.51228    0.62813    1.000
    W54      W        0.15168    0.40323    0.69484    1.000
    W55      W        0.32557    0.57757    0.54692    1.000
    W56      W        0.30996    0.42417    0.70964    1.000
    W57      W        0.14939    0.55392    0.52772    1.000
    W58      W        0.20759    0.52845    0.72760    1.000
    W59      W        0.26878    0.43725    0.50580    1.000
    W60      W        0.30648    0.61955    0.65123    1.000
    W61      W        0.87032    0.90150    0.13121    1.000
    W62      W        0.93428    0.02264    0.10048    1.000
    W63      W        0.81958    0.14046    0.07577    1.000
    W64      W        0.66103    0.12850    0.09246    1.000
    W65      W        0.59698    0.98772    0.12813    1.000
    W66      W        0.84832    0.09677    0.19484    1.000
    W67      W        0.67443    0.92243    0.04692    1.000
    W68      W        0.69004    0.07583    0.20964    1.000
    W69      W        0.85061    0.94608    0.02772    1.000
    W70      W        0.79241    0.97155    0.22760    1.000
    W71      W        0.73122    0.06275    0.00580    1.000
    W72      W        0.69352    0.88045    0.15123    1.000
    W73      W        0.62968    0.40150    0.86879    1.000
    W74      W        0.56572    0.52264    0.89952    1.000
    W75      W        0.68042    0.64046    0.92423    1.000
    W76      W        0.83897    0.62850    0.90754    1.000
    W77      W        0.90302    0.48772    0.87187    1.000
    W78      W        0.65168    0.59677    0.80516    1.000
    W79      W        0.82557    0.42243    0.95308    1.000
    W80      W        0.80996    0.57583    0.79036    1.000
    W81      W        0.64939    0.44608    0.97228    1.000
    W82      W        0.70759    0.47155    0.77240    1.000
    W83      W        0.76878    0.56275    0.99420    1.000
    W84      W        0.80648    0.38045    0.84877    1.000
    W85      W        0.37032    0.09850    0.36879    1.000
    W86      W        0.43428    0.97736    0.39952    1.000
    W87      W        0.31958    0.85954    0.42423    1.000
    W88      W        0.16103    0.87150    0.40754    1.000
    W89      W        0.09698    0.01228    0.37187    1.000
    W90      W        0.34832    0.90323    0.30516    1.000
    W91      W        0.17443    0.07757    0.45308    1.000
    W92      W        0.19004    0.92417    0.29036    1.000
    W93      W        0.35061    0.05392    0.47228    1.000
    W94      W        0.29241    0.02845    0.27240    1.000
    W95      W        0.23122    0.93725    0.49420    1.000
    W96      W        0.19352    0.11955    0.34877    1.000
    C1       C        0.72780    0.76560    0.49650    1.000
    C2       C        0.68200    0.74260    0.52520    1.000
    C3       C        0.70390    0.72060    0.56530    1.000
    C4       C        0.76780    0.72260    0.57660    1.000
    C5       C        0.81310    0.74580    0.54440    1.000
    C6       C        0.71200    0.78870    0.45110    1.000
    C7       C        0.88490    0.74920    0.55340    1.000
    C8       C        0.28540    0.52950    0.37760    1.000
    C9       C        0.22680    0.54150    0.39860    1.000
    C10      C        0.17460    0.50180    0.39400    1.000
    C11      C        0.18630    0.45120    0.37030    1.000
    C12      C        0.24940    0.44370    0.35080    1.000
    C13      C        0.34420    0.56660    0.38230    1.000
    C14      C        0.27280    0.38960    0.32970    1.000
    C15      C        0.53360    0.39560    0.26070    1.000
    C16      C        0.58730    0.38420    0.23300    1.000
    C17      C        0.61010    0.42740    0.20470    1.000
    C18      C        0.58100    0.47940    0.20540    1.000
    C19      C        0.52850    0.48790    0.23450    1.000
    C20      C        0.49610    0.54440    0.24230    1.000
    C21      C        0.50640    0.35530    0.29480    1.000
    C22      C        0.27220    0.73440    0.99650    1.000
    C23      C        0.31800    0.75740    0.02520    1.000
    C24      C        0.29610    0.77940    0.06530    1.000
    C25      C        0.23220    0.77740    0.07660    1.000
    C26      C        0.18690    0.75420    0.04440    1.000
    C27      C        0.28800    0.71130    0.95110    1.000
    C28      C        0.11510    0.75080    0.05340    1.000
    C29      C        0.71460    0.97050    0.87760    1.000
    C30      C        0.77320    0.95850    0.89860    1.000
    C31      C        0.82540    0.99820    0.89400    1.000
    C32      C        0.81370    0.04880    0.87030    1.000
    C33      C        0.75060    0.05630    0.85080    1.000
    C34      C        0.65580    0.93340    0.88230    1.000
    C35      C        0.72720    0.11040    0.82970    1.000
    C36      C        0.46640    0.10440    0.76070    1.000
    C37      C        0.41270    0.11580    0.73300    1.000
    C38      C        0.38990    0.07260    0.70470    1.000
    C39      C        0.41900    0.02060    0.70540    1.000
    C40      C        0.47150    0.01210    0.73450    1.000
    C41      C        0.50390    0.95560    0.74230    1.000
    C42      C        0.49360    0.14470    0.79480    1.000
    C43      C        0.22780    0.23440    0.00350    1.000
    C44      C        0.18200    0.25740    0.97480    1.000
    C45      C        0.20390    0.27940    0.93470    1.000
    C46      C        0.26780    0.27740    0.92340    1.000
    C47      C        0.31310    0.25420    0.95560    1.000
    C48      C        0.21200    0.21130    0.04890    1.000
    C49      C        0.38490    0.25080    0.94660    1.000
    C50      C        0.78540    0.47050    0.12240    1.000
    C51      C        0.72680    0.45850    0.10140    1.000
    C52      C        0.67460    0.49820    0.10600    1.000
    C53      C        0.68630    0.54880    0.12970    1.000
    C54      C        0.74940    0.55630    0.14920    1.000
    C55      C        0.84420    0.43340    0.11770    1.000
    C56      C        0.77280    0.61040    0.17030    1.000
    C57      C        0.03360    0.60440    0.23930    1.000
    C58      C        0.08730    0.61580    0.26700    1.000
    C59      C        0.11010    0.57260    0.29530    1.000
    C60      C        0.08100    0.52060    0.29460    1.000
    C61      C        0.02850    0.51210    0.26550    1.000
    C62      C        0.99610    0.45560    0.25770    1.000
    C63      C        0.00640    0.64470    0.20520    1.000
    C64      C        0.77220    0.26560    0.50350    1.000
    C65      C        0.81800    0.24260    0.47480    1.000
    C66      C        0.79610    0.22060    0.43470    1.000
    C67      C        0.73220    0.22260    0.42340    1.000
    C68      C        0.68690    0.24580    0.45560    1.000
    C69      C        0.78800    0.28870    0.54890    1.000
    C70      C        0.61510    0.24920    0.44660    1.000
    C71      C        0.21460    0.02950    0.62240    1.000
    C72      C        0.27320    0.04150    0.60140    1.000
    C73      C        0.32540    0.00180    0.60600    1.000
    C74      C        0.31370    0.95120    0.62970    1.000
    C75      C        0.25060    0.94370    0.64920    1.000
    C76      C        0.15580    0.06660    0.61770    1.000
    C77      C        0.22720    0.88960    0.67030    1.000
    C78      C        0.96640    0.89560    0.73930    1.000
    C79      C        0.91270    0.88420    0.76700    1.000
    C80      C        0.88990    0.92740    0.79530    1.000
    C81      C        0.91900    0.97940    0.79460    1.000
    C82      C        0.97150    0.98790    0.76550    1.000
    C83      C        0.00390    0.04440    0.75770    1.000
    C84      C        0.99360    0.85530    0.70520    1.000
    C85      C        0.27220    0.23440    0.50350    1.000
    C86      C        0.31800    0.25740    0.47480    1.000
    C87      C        0.29610    0.27940    0.43470    1.000
    C88      C        0.23220    0.27740    0.42340    1.000
    C89      C        0.18690    0.25420    0.45560    1.000
    C90      C        0.28800    0.21130    0.54890    1.000
    C91      C        0.11510    0.25080    0.44660    1.000
    C92      C        0.71460    0.47050    0.62240    1.000
    C93      C        0.77320    0.45850    0.60140    1.000
    C94      C        0.82540    0.49820    0.60600    1.000
    C95      C        0.81370    0.54880    0.62970    1.000
    C96      C        0.75060    0.55630    0.64920    1.000
    C97      C        0.65580    0.43340    0.61770    1.000
    C98      C        0.72720    0.61040    0.67030    1.000
    C99      C        0.46640    0.60440    0.73930    1.000
    C100     C        0.41270    0.61580    0.76700    1.000
    C101     C        0.38990    0.57260    0.79530    1.000
    C102     C        0.41900    0.52060    0.79460    1.000
    C103     C        0.47150    0.51210    0.76550    1.000
    C104     C        0.50390    0.45560    0.75770    1.000
    C105     C        0.49360    0.64470    0.70520    1.000
    C106     C        0.72780    0.26560    0.00350    1.000
    C107     C        0.68200    0.24260    0.97480    1.000
    C108     C        0.70390    0.22060    0.93470    1.000
    C109     C        0.76780    0.22260    0.92340    1.000
    C110     C        0.81310    0.24580    0.95560    1.000
    C111     C        0.71200    0.28870    0.04890    1.000
    C112     C        0.88490    0.24920    0.94660    1.000
    C113     C        0.28540    0.02950    0.12240    1.000
    C114     C        0.22680    0.04150    0.10140    1.000
    C115     C        0.17460    0.00180    0.10600    1.000
    C116     C        0.18630    0.95120    0.12970    1.000
    C117     C        0.24940    0.94370    0.14920    1.000
    C118     C        0.34420    0.06660    0.11770    1.000
    C119     C        0.27280    0.88960    0.17030    1.000
    C120     C        0.53360    0.89560    0.23930    1.000
    C121     C        0.58730    0.88420    0.26700    1.000
    C122     C        0.61010    0.92740    0.29530    1.000
    C123     C        0.58100    0.97940    0.29460    1.000
    C124     C        0.52850    0.98790    0.26550    1.000
    C125     C        0.49610    0.04440    0.25770    1.000
    C126     C        0.50640    0.85530    0.20520    1.000
    C127     C        0.77220    0.76560    0.99650    1.000
    C128     C        0.81800    0.74260    0.02520    1.000
    C129     C        0.79610    0.72060    0.06530    1.000
    C130     C        0.73220    0.72260    0.07660    1.000
    C131     C        0.68690    0.74580    0.04440    1.000
    C132     C        0.78800    0.78870    0.95110    1.000
    C133     C        0.61510    0.74920    0.05340    1.000
    C134     C        0.21460    0.52950    0.87760    1.000
    C135     C        0.27320    0.54150    0.89860    1.000
    C136     C        0.32540    0.50180    0.89400    1.000
    C137     C        0.31370    0.45120    0.87030    1.000
    C138     C        0.25060    0.44370    0.85080    1.000
    C139     C        0.15580    0.56660    0.88230    1.000
    C140     C        0.22720    0.38960    0.82970    1.000
    C141     C        0.96640    0.39560    0.76070    1.000
    C142     C        0.91270    0.38420    0.73300    1.000
    C143     C        0.88990    0.42740    0.70470    1.000
    C144     C        0.91900    0.47940    0.70540    1.000
    C145     C        0.97150    0.48790    0.73450    1.000
    C146     C        0.00390    0.54440    0.74230    1.000
    C147     C        0.99360    0.35530    0.79480    1.000
    C148     C        0.22780    0.73440    0.49650    1.000
    C149     C        0.18200    0.75740    0.52520    1.000
    C150     C        0.20390    0.77940    0.56530    1.000
    C151     C        0.26780    0.77740    0.57660    1.000
    C152     C        0.31310    0.75420    0.54440    1.000
    C153     C        0.21200    0.71130    0.45110    1.000
    C154     C        0.38490    0.75080    0.55340    1.000
    C155     C        0.78540    0.97050    0.37760    1.000
    C156     C        0.72680    0.95850    0.39860    1.000
    C157     C        0.67460    0.99820    0.39400    1.000
    C158     C        0.68630    0.04880    0.37030    1.000
    C159     C        0.74940    0.05630    0.35080    1.000
    C160     C        0.84420    0.93340    0.38230    1.000
    C161     C        0.77280    0.11040    0.32970    1.000
    C162     C        0.03360    0.10440    0.26070    1.000
    C163     C        0.08730    0.11580    0.23300    1.000
    C164     C        0.11010    0.07260    0.20470    1.000
    C165     C        0.08100    0.02060    0.20540    1.000
    C166     C        0.02850    0.01210    0.23450    1.000
    C167     C        0.99610    0.95560    0.24230    1.000
    C168     C        0.00640    0.14470    0.29480    1.000
    N1       N        0.50460    0.44660    0.26120    1.000
    N2       N        0.29690    0.48170    0.35400    1.000
    N3       N        0.79200    0.76750    0.50550    1.000
    N4       N        0.49540    0.05340    0.76120    1.000
    N5       N        0.70310    0.01830    0.85400    1.000
    N6       N        0.20800    0.73250    0.00550    1.000
    N7       N        0.00460    0.55340    0.23880    1.000
    N8       N        0.79690    0.51830    0.14600    1.000
    N9       N        0.29200    0.23250    0.99450    1.000
    N10      N        0.99540    0.94660    0.73880    1.000
    N11      N        0.20310    0.98170    0.64600    1.000
    N12      N        0.70800    0.26750    0.49450    1.000
    N13      N        0.49540    0.55340    0.73880    1.000
    N14      N        0.70310    0.51830    0.64600    1.000
    N15      N        0.20800    0.23250    0.49450    1.000
    N16      N        0.50460    0.94660    0.23880    1.000
    N17      N        0.29690    0.98170    0.14600    1.000
    N18      N        0.79200    0.26750    0.99450    1.000
    N19      N        0.99540    0.44660    0.76120    1.000
    N20      N        0.20310    0.48170    0.85400    1.000
    N21      N        0.70800    0.76750    0.00550    1.000
    N22      N        0.00460    0.05340    0.26120    1.000
    N23      N        0.79690    0.01830    0.35400    1.000
    N24      N        0.29200    0.73250    0.50550    1.000
    O1       O        0.69750    0.46300    0.38910    1.000
    O2       O        0.74720    0.57070    0.41930    1.000
    O3       O        0.77660    0.53240    0.32590    1.000
    O4       O        0.83920    0.47750    0.40090    1.000
    O5       O        0.92760    0.48800    0.46040    1.000
    O6       O        0.32870    0.38640    0.31650    1.000
    O7       O        0.53020    0.30600    0.29910    1.000
    O8       O        0.39520    0.55270    0.36320    1.000
    O9       O        0.91710    0.34260    0.35200    1.000
    O10      O        0.86010    0.70330    0.43570    1.000
    O11      O        0.76290    0.41340    0.46380    1.000
    O12      O        0.76820    0.62260    0.27900    1.000
    O13      O        0.61060    0.55710    0.39980    1.000
    O14      O        0.51510    0.58430    0.21350    1.000
    O15      O        0.46070    0.37460    0.31960    1.000
    O16      O        0.67850    0.62110    0.34440    1.000
    O17      O        0.72440    0.52080    0.24850    1.000
    O18      O        0.80410    0.51110    0.49400    1.000
    O19      O        0.67310    0.35950    0.40980    1.000
    O20      O        0.22970    0.34920    0.32430    1.000
    O21      O        0.64150    0.38390    0.49840    1.000
    O22      O        0.73130    0.42320    0.29820    1.000
    O23      O        0.33740    0.61320    0.40590    1.000
    O24      O        0.85530    0.43970    0.31170    1.000
    O25      O        0.88560    0.58650    0.42740    1.000
    O26      O        0.82590    0.63790    0.36060    1.000
    O27      O        0.51500    0.49060    0.35680    1.000
    O28      O        0.67950    0.49570    0.48080    1.000
    O29      O        0.45730    0.55110    0.27250    1.000
    O30      O        0.85490    0.53630    0.26040    1.000
    O31      O        0.90360    0.73320    0.59150    1.000
    O32      O        0.95140    0.45060    0.37500    1.000
    O33      O        0.79210    0.62460    0.48540    1.000
    O34      O        0.90690    0.55610    0.34320    1.000
    O35      O        0.78630    0.37310    0.36590    1.000
    O36      O        0.73370    0.67580    0.41570    1.000
    O37      O        0.66140    0.61020    0.47220    1.000
    O38      O        0.58840    0.44610    0.42710    1.000
    O39      O        0.63500    0.52190    0.31720    1.000
    O40      O        0.61180    0.41330    0.33970    1.000
    O41      O        0.88040    0.38450    0.43350    1.000
    O42      O        0.75380    0.80640    0.42630    1.000
    O43      O        0.91940    0.76800    0.52220    1.000
    O44      O        0.64950    0.79090    0.44240    1.000
    O45      O        0.30250    0.03700    0.88910    1.000
    O46      O        0.25280    0.92930    0.91930    1.000
    O47      O        0.22340    0.96760    0.82590    1.000
    O48      O        0.16080    0.02250    0.90090    1.000
    O49      O        0.07240    0.01200    0.96040    1.000
    O50      O        0.67130    0.11360    0.81650    1.000
    O51      O        0.46980    0.19400    0.79910    1.000
    O52      O        0.60480    0.94730    0.86320    1.000
    O53      O        0.08290    0.15740    0.85200    1.000
    O54      O        0.13990    0.79670    0.93570    1.000
    O55      O        0.23710    0.08660    0.96380    1.000
    O56      O        0.23180    0.87740    0.77900    1.000
    O57      O        0.38940    0.94290    0.89980    1.000
    O58      O        0.48490    0.91570    0.71350    1.000
    O59      O        0.53930    0.12540    0.81960    1.000
    O60      O        0.32150    0.87890    0.84440    1.000
    O61      O        0.27560    0.97920    0.74850    1.000
    O62      O        0.19590    0.98890    0.99400    1.000
    O63      O        0.32690    0.14050    0.90980    1.000
    O64      O        0.77030    0.15080    0.82430    1.000
    O65      O        0.35850    0.11610    0.99840    1.000
    O66      O        0.26870    0.07680    0.79820    1.000
    O67      O        0.66260    0.88680    0.90590    1.000
    O68      O        0.14470    0.06030    0.81170    1.000
    O69      O        0.11440    0.91350    0.92740    1.000
    O70      O        0.17410    0.86210    0.86060    1.000
    O71      O        0.48500    0.00940    0.85680    1.000
    O72      O        0.32050    0.00430    0.98080    1.000
    O73      O        0.54270    0.94890    0.77250    1.000
    O74      O        0.14510    0.96370    0.76040    1.000
    O75      O        0.09640    0.76680    0.09150    1.000
    O76      O        0.04860    0.04940    0.87500    1.000
    O77      O        0.20790    0.87540    0.98540    1.000
    O78      O        0.09310    0.94390    0.84320    1.000
    O79      O        0.21370    0.12690    0.86590    1.000
    O80      O        0.26630    0.82420    0.91570    1.000
    O81      O        0.33860    0.88980    0.97220    1.000
    O82      O        0.41160    0.05390    0.92710    1.000
    O83      O        0.36500    0.97810    0.81720    1.000
    O84      O        0.38820    0.08670    0.83970    1.000
    O85      O        0.11960    0.11550    0.93350    1.000
    O86      O        0.24620    0.69360    0.92630    1.000
    O87      O        0.08060    0.73200    0.02220    1.000
    O88      O        0.35050    0.70910    0.94240    1.000
    O89      O        0.19750    0.53700    0.11090    1.000
    O90      O        0.24720    0.42930    0.08070    1.000
    O91      O        0.27660    0.46760    0.17410    1.000
    O92      O        0.33920    0.52250    0.09910    1.000
    O93      O        0.42760    0.51200    0.03960    1.000
    O94      O        0.82870    0.61360    0.18350    1.000
    O95      O        0.03020    0.69400    0.20090    1.000
    O96      O        0.89520    0.44730    0.13680    1.000
    O97      O        0.41710    0.65740    0.14800    1.000
    O98      O        0.36010    0.29670    0.06430    1.000
    O99      O        0.26290    0.58660    0.03620    1.000
    O100     O        0.26820    0.37740    0.22100    1.000
    O101     O        0.11060    0.44290    0.10020    1.000
    O102     O        0.01510    0.41570    0.28650    1.000
    O103     O        0.96070    0.62540    0.18040    1.000
    O104     O        0.17850    0.37890    0.15560    1.000
    O105     O        0.22440    0.47920    0.25150    1.000
    O106     O        0.30410    0.48890    0.00600    1.000
    O107     O        0.17310    0.64050    0.09020    1.000
    O108     O        0.72970    0.65080    0.17570    1.000
    O109     O        0.14150    0.61610    0.00160    1.000
    O110     O        0.23130    0.57680    0.20180    1.000
    O111     O        0.83740    0.38680    0.09410    1.000
    O112     O        0.35530    0.56030    0.18830    1.000
    O113     O        0.38560    0.41350    0.07260    1.000
    O114     O        0.32590    0.36210    0.13940    1.000
    O115     O        0.01500    0.50940    0.14320    1.000
    O116     O        0.17950    0.50430    0.01920    1.000
    O117     O        0.95730    0.44890    0.22750    1.000
    O118     O        0.35490    0.46370    0.23960    1.000
    O119     O        0.40360    0.26680    0.90850    1.000
    O120     O        0.45140    0.54940    0.12500    1.000
    O121     O        0.29210    0.37540    0.01460    1.000
    O122     O        0.40690    0.44390    0.15680    1.000
    O123     O        0.28630    0.62690    0.13410    1.000
    O124     O        0.23370    0.32420    0.08430    1.000
    O125     O        0.16140    0.38980    0.02780    1.000
    O126     O        0.08840    0.55390    0.07290    1.000
    O127     O        0.13500    0.47810    0.18280    1.000
    O128     O        0.11180    0.58670    0.16030    1.000
    O129     O        0.38040    0.61550    0.06650    1.000
    O130     O        0.25380    0.19360    0.07370    1.000
    O131     O        0.41940    0.23200    0.97780    1.000
    O132     O        0.14950    0.20910    0.05760    1.000
    O133     O        0.80250    0.96300    0.61090    1.000
    O134     O        0.75280    0.07070    0.58070    1.000
    O135     O        0.72340    0.03240    0.67410    1.000
    O136     O        0.66080    0.97750    0.59910    1.000
    O137     O        0.57240    0.98800    0.53960    1.000
    O138     O        0.17130    0.88640    0.68350    1.000
    O139     O        0.96980    0.80600    0.70090    1.000
    O140     O        0.10480    0.05270    0.63680    1.000
    O141     O        0.58290    0.84260    0.64800    1.000
    O142     O        0.63990    0.20330    0.56430    1.000
    O143     O        0.73710    0.91340    0.53620    1.000
    O144     O        0.73180    0.12260    0.72100    1.000
    O145     O        0.88940    0.05710    0.60020    1.000
    O146     O        0.98490    0.08430    0.78650    1.000
    O147     O        0.03930    0.87460    0.68040    1.000
    O148     O        0.82150    0.12110    0.65560    1.000
    O149     O        0.77560    0.02080    0.75150    1.000
    O150     O        0.69590    0.01110    0.50600    1.000
    O151     O        0.82690    0.85950    0.59020    1.000
    O152     O        0.27030    0.84920    0.67570    1.000
    O153     O        0.85850    0.88390    0.50160    1.000
    O154     O        0.76870    0.92320    0.70180    1.000
    O155     O        0.16260    0.11320    0.59410    1.000
    O156     O        0.64470    0.93970    0.68830    1.000
    O157     O        0.61440    0.08650    0.57260    1.000
    O158     O        0.67410    0.13790    0.63940    1.000
    O159     O        0.98500    0.99060    0.64320    1.000
    O160     O        0.82050    0.99570    0.51920    1.000
    O161     O        0.04270    0.05110    0.72750    1.000
    O162     O        0.64510    0.03630    0.73960    1.000
    O163     O        0.59640    0.23320    0.40850    1.000
    O164     O        0.54860    0.95060    0.62500    1.000
    O165     O        0.70790    0.12460    0.51460    1.000
    O166     O        0.59310    0.05610    0.65680    1.000
    O167     O        0.71370    0.87310    0.63410    1.000
    O168     O        0.76630    0.17580    0.58430    1.000
    O169     O        0.83860    0.11020    0.52780    1.000
    O170     O        0.91160    0.94610    0.57290    1.000
    O171     O        0.86500    0.02190    0.68280    1.000
    O172     O        0.88820    0.91330    0.66030    1.000
    O173     O        0.61960    0.88450    0.56650    1.000
    O174     O        0.74620    0.30640    0.57370    1.000
    O175     O        0.58060    0.26800    0.47780    1.000
    O176     O        0.85050    0.29090    0.55760    1.000
    O177     O        0.30250    0.53700    0.61090    1.000
    O178     O        0.25280    0.42930    0.58070    1.000
    O179     O        0.22340    0.46760    0.67410    1.000
    O180     O        0.16080    0.52250    0.59910    1.000
    O181     O        0.07240    0.51200    0.53960    1.000
    O182     O        0.67130    0.61360    0.68350    1.000
    O183     O        0.46980    0.69400    0.70090    1.000
    O184     O        0.60480    0.44730    0.63680    1.000
    O185     O        0.08290    0.65740    0.64800    1.000
    O186     O        0.13990    0.29670    0.56430    1.000
    O187     O        0.23710    0.58660    0.53620    1.000
    O188     O        0.23180    0.37740    0.72100    1.000
    O189     O        0.38940    0.44290    0.60020    1.000
    O190     O        0.48490    0.41570    0.78650    1.000
    O191     O        0.53930    0.62540    0.68040    1.000
    O192     O        0.32150    0.37890    0.65560    1.000
    O193     O        0.27560    0.47920    0.75150    1.000
    O194     O        0.19590    0.48890    0.50600    1.000
    O195     O        0.32690    0.64050    0.59020    1.000
    O196     O        0.77030    0.65080    0.67570    1.000
    O197     O        0.35850    0.61610    0.50160    1.000
    O198     O        0.26870    0.57680    0.70180    1.000
    O199     O        0.66260    0.38680    0.59410    1.000
    O200     O        0.14470    0.56030    0.68830    1.000
    O201     O        0.11440    0.41350    0.57260    1.000
    O202     O        0.17410    0.36210    0.63940    1.000
    O203     O        0.48500    0.50940    0.64320    1.000
    O204     O        0.32050    0.50430    0.51920    1.000
    O205     O        0.54270    0.44890    0.72750    1.000
    O206     O        0.14510    0.46370    0.73960    1.000
    O207     O        0.09640    0.26680    0.40850    1.000
    O208     O        0.04860    0.54940    0.62500    1.000
    O209     O        0.20790    0.37540    0.51460    1.000
    O210     O        0.09310    0.44390    0.65680    1.000
    O211     O        0.21370    0.62690    0.63410    1.000
    O212     O        0.26630    0.32420    0.58430    1.000
    O213     O        0.33860    0.38980    0.52780    1.000
    O214     O        0.41160    0.55390    0.57290    1.000
    O215     O        0.36500    0.47810    0.68280    1.000
    O216     O        0.38820    0.58670    0.66030    1.000
    O217     O        0.11960    0.61550    0.56650    1.000
    O218     O        0.24620    0.19360    0.57370    1.000
    O219     O        0.08060    0.23200    0.47780    1.000
    O220     O        0.35050    0.20910    0.55760    1.000
    O221     O        0.69750    0.96300    0.11090    1.000
    O222     O        0.74720    0.07070    0.08070    1.000
    O223     O        0.77660    0.03240    0.17410    1.000
    O224     O        0.83920    0.97750    0.09910    1.000
    O225     O        0.92760    0.98800    0.03960    1.000
    O226     O        0.32870    0.88640    0.18350    1.000
    O227     O        0.53020    0.80600    0.20090    1.000
    O228     O        0.39520    0.05270    0.13680    1.000
    O229     O        0.91710    0.84260    0.14800    1.000
    O230     O        0.86010    0.20330    0.06430    1.000
    O231     O        0.76290    0.91340    0.03620    1.000
    O232     O        0.76820    0.12260    0.22100    1.000
    O233     O        0.61060    0.05710    0.10020    1.000
    O234     O        0.51510    0.08430    0.28650    1.000
    O235     O        0.46070    0.87460    0.18040    1.000
    O236     O        0.67850    0.12110    0.15560    1.000
    O237     O        0.72440    0.02080    0.25150    1.000
    O238     O        0.80410    0.01110    0.00600    1.000
    O239     O        0.67310    0.85950    0.09020    1.000
    O240     O        0.22970    0.84920    0.17570    1.000
    O241     O        0.64150    0.88390    0.00160    1.000
    O242     O        0.73130    0.92320    0.20180    1.000
    O243     O        0.33740    0.11320    0.09410    1.000
    O244     O        0.85530    0.93970    0.18830    1.000
    O245     O        0.88560    0.08650    0.07260    1.000
    O246     O        0.82590    0.13790    0.13940    1.000
    O247     O        0.51500    0.99060    0.14320    1.000
    O248     O        0.67950    0.99570    0.01920    1.000
    O249     O        0.45730    0.05110    0.22750    1.000
    O250     O        0.85490    0.03630    0.23960    1.000
    O251     O        0.90360    0.23320    0.90850    1.000
    O252     O        0.95140    0.95060    0.12500    1.000
    O253     O        0.79210    0.12460    0.01460    1.000
    O254     O        0.90690    0.05610    0.15680    1.000
    O255     O        0.78630    0.87310    0.13410    1.000
    O256     O        0.73370    0.17580    0.08430    1.000
    O257     O        0.66140    0.11020    0.02780    1.000
    O258     O        0.58840    0.94610    0.07290    1.000
    O259     O        0.63500    0.02190    0.18280    1.000
    O260     O        0.61180    0.91330    0.16030    1.000
    O261     O        0.88040    0.88450    0.06650    1.000
    O262     O        0.75380    0.30640    0.07370    1.000
    O263     O        0.91940    0.26800    0.97780    1.000
    O264     O        0.64950    0.29090    0.05760    1.000
    O265     O        0.80250    0.46300    0.88910    1.000
    O266     O        0.75280    0.57070    0.91930    1.000
    O267     O        0.72340    0.53240    0.82590    1.000
    O268     O        0.66080    0.47750    0.90090    1.000
    O269     O        0.57240    0.48800    0.96040    1.000
    O270     O        0.17130    0.38640    0.81650    1.000
    O271     O        0.96980    0.30600    0.79910    1.000
    O272     O        0.10480    0.55270    0.86320    1.000
    O273     O        0.58290    0.34260    0.85200    1.000
    O274     O        0.63990    0.70330    0.93570    1.000
    O275     O        0.73710    0.41340    0.96380    1.000
    O276     O        0.73180    0.62260    0.77900    1.000
    O277     O        0.88940    0.55710    0.89980    1.000
    O278     O        0.98490    0.58430    0.71350    1.000
    O279     O        0.03930    0.37460    0.81960    1.000
    O280     O        0.82150    0.62110    0.84440    1.000
    O281     O        0.77560    0.52080    0.74850    1.000
    O282     O        0.69590    0.51110    0.99400    1.000
    O283     O        0.82690    0.35950    0.90980    1.000
    O284     O        0.27030    0.34920    0.82430    1.000
    O285     O        0.85850    0.38390    0.99840    1.000
    O286     O        0.76870    0.42320    0.79820    1.000
    O287     O        0.16260    0.61320    0.90590    1.000
    O288     O        0.64470    0.43970    0.81170    1.000
    O289     O        0.61440    0.58650    0.92740    1.000
    O290     O        0.67410    0.63790    0.86060    1.000
    O291     O        0.98500    0.49060    0.85680    1.000
    O292     O        0.82050    0.49570    0.98080    1.000
    O293     O        0.04270    0.55110    0.77250    1.000
    O294     O        0.64510    0.53630    0.76040    1.000
    O295     O        0.59640    0.73320    0.09150    1.000
    O296     O        0.54860    0.45060    0.87500    1.000
    O297     O        0.70790    0.62460    0.98540    1.000
    O298     O        0.59310    0.55610    0.84320    1.000
    O299     O        0.71370    0.37310    0.86590    1.000
    O300     O        0.76630    0.67580    0.91570    1.000
    O301     O        0.83860    0.61020    0.97220    1.000
    O302     O        0.91160    0.44610    0.92710    1.000
    O303     O        0.86500    0.52190    0.81720    1.000
    O304     O        0.88820    0.41330    0.83970    1.000
    O305     O        0.61960    0.38450    0.93350    1.000
    O306     O        0.74620    0.80640    0.92630    1.000
    O307     O        0.58060    0.76800    0.02220    1.000
    O308     O        0.85050    0.79090    0.94240    1.000
    O309     O        0.19750    0.03700    0.38910    1.000
    O310     O        0.24720    0.92930    0.41930    1.000
    O311     O        0.27660    0.96760    0.32590    1.000
    O312     O        0.33920    0.02250    0.40090    1.000
    O313     O        0.42760    0.01200    0.46040    1.000
    O314     O        0.82870    0.11360    0.31650    1.000
    O315     O        0.03020    0.19400    0.29910    1.000
    O316     O        0.89520    0.94730    0.36320    1.000
    O317     O        0.41710    0.15740    0.35200    1.000
    O318     O        0.36010    0.79670    0.43570    1.000
    O319     O        0.26290    0.08660    0.46380    1.000
    O320     O        0.26820    0.87740    0.27900    1.000
    O321     O        0.11060    0.94290    0.39980    1.000
    O322     O        0.01510    0.91570    0.21350    1.000
    O323     O        0.96070    0.12540    0.31960    1.000
    O324     O        0.17850    0.87890    0.34440    1.000
    O325     O        0.22440    0.97920    0.24850    1.000
    O326     O        0.30410    0.98890    0.49400    1.000
    O327     O        0.17310    0.14050    0.40980    1.000
    O328     O        0.72970    0.15080    0.32430    1.000
    O329     O        0.14150    0.11610    0.49840    1.000
    O330     O        0.23130    0.07680    0.29820    1.000
    O331     O        0.83740    0.88680    0.40590    1.000
    O332     O        0.35530    0.06030    0.31170    1.000
    O333     O        0.38560    0.91350    0.42740    1.000
    O334     O        0.32590    0.86210    0.36060    1.000
    O335     O        0.01500    0.00940    0.35680    1.000
    O336     O        0.17950    0.00430    0.48080    1.000
    O337     O        0.95730    0.94890    0.27250    1.000
    O338     O        0.35490    0.96370    0.26040    1.000
    O339     O        0.40360    0.76680    0.59150    1.000
    O340     O        0.45140    0.04940    0.37500    1.000
    O341     O        0.29210    0.87540    0.48540    1.000
    O342     O        0.40690    0.94390    0.34320    1.000
    O343     O        0.28630    0.12690    0.36590    1.000
    O344     O        0.23370    0.82420    0.41570    1.000
    O345     O        0.16140    0.88980    0.47220    1.000
    O346     O        0.08840    0.05390    0.42710    1.000
    O347     O        0.13500    0.97810    0.31720    1.000
    O348     O        0.11180    0.08670    0.33970    1.000
    O349     O        0.38040    0.11550    0.43350    1.000
    O350     O        0.25380    0.69360    0.42630    1.000
    O351     O        0.41940    0.73200    0.52220    1.000
    O352     O        0.14950    0.70910    0.44240    1.000
