# CIF file generated by openbabel 3.1.0, see https://openbabel.org
data_I
_chemical_name_common 'image0'
_cell_length_a 10.5892
_cell_length_b 19.97
_cell_length_c 18.98
_cell_angle_alpha 90
_cell_angle_beta 91.181
_cell_angle_gamma 90
_space_group_name_H-M_alt 'P 1'
_space_group_name_Hall 'P 1'
loop_
    _symmetry_equiv_pos_as_xyz
    x,y,z
loop_
    _atom_site_label
    _atom_site_type_symbol
    _atom_site_fract_x
    _atom_site_fract_y
    _atom_site_fract_z
    _atom_site_occupancy
    Ni1      Ni       0.18465    0.23229    0.12702    1.000
    Ni2      Ni       0.66794    0.12160    0.22588    1.000
    S1       S        0.74999    0.49339    0.00031    1.000
    C1       C        0.72640    0.27690    0.07100    1.000
    C2       C        0.84390    0.30820    0.06800    1.000
    C3       C        0.85100    0.37430    0.04620    1.000
    H1       H        0.92900    0.39560    0.04350    1.000
    C4       C        0.74100    0.40860    0.02840    1.000
    C5       C        0.62510    0.37830    0.03110    1.000
    H2       H        0.55200    0.40210    0.01970    1.000
    C6       C        0.61830    0.31240    0.05090    1.000
    H3       H        0.54020    0.29110    0.05080    1.000
    C7       C        0.75970    0.53880    0.07970    1.000
    C8       C        0.87630    0.56380    0.10460    1.000
    H4       H        0.95010    0.55560    0.08020    1.000
    C9       C        0.87850    0.60060    0.16560    1.000
    H5       H        0.95560    0.61750    0.18180    1.000
    C10      C        0.77170    0.61390    0.20460    1.000
    C11      C        0.65580    0.58760    0.18000    1.000
    C12      C        0.65070    0.55020    0.11760    1.000
    H6       H        0.57390    0.53290    0.10140    1.000
    C13      C        0.70640    0.20610    0.09680    1.000
    C14      C        0.96570    0.27170    0.08670    1.000
    C15      C        0.53140    0.60150    0.21310    1.000
    C16      C        0.78820    0.65600    0.27030    1.000
    C17      C        0.85880    0.01390    0.25920    1.000
    H7       H        0.81280    0.99910    0.29750    1.000
    C18      C        0.91880    0.06970    0.17000    1.000
    H8       H        0.92170    0.10140    0.13420    1.000
    C19      C        0.00630    0.02340    0.18350    1.000
    H9       H        0.08000    0.01670    0.15860    1.000
    C20      C        0.04040    0.93330    0.27450    1.000
    H10      H        0.02270    0.93280    0.32440    1.000
    H11      H        0.13000    0.94170    0.26950    1.000
    C21      C        0.00370    0.79130    0.13530    1.000
    H12      H        0.93310    0.77170    0.15970    1.000
    H13      H        0.98260    0.79250    0.08540    1.000
    C22      C        0.00690    0.86410    0.24210    1.000
    H14      H        0.05930    0.83000    0.26430    1.000
    H15      H        0.91940    0.85370    0.25160    1.000
    C23      C        0.02630    0.86270    0.16220    1.000
    H16      H        0.11160    0.87670    0.15180    1.000
    H17      H        0.96780    0.89330    0.13890    1.000
    C24      C        0.14220    0.71090    0.20370    1.000
    H18      H        0.09070    0.70730    0.24260    1.000
    C25      C        0.21660    0.74410    0.10230    1.000
    H19      H        0.22690    0.76680    0.05990    1.000
    C26      C        0.29600    0.69890    0.13210    1.000
    H20      H        0.37060    0.68380    0.11250    1.000
    N1       N        0.25310    0.22280    0.02910    1.000
    C27      C        0.25550    0.26990    0.97800    1.000
    H21      H        0.21740    0.31180    0.98080    1.000
    C28      C        0.32020    0.24790    0.92290    1.000
    H22      H        0.32080    0.26440    0.87710    1.000
    C29      C        0.59480    0.13470    0.74410    1.000
    H23      H        0.63300    0.17660    0.75900    1.000
    H24      H        0.65470    0.11100    0.71530    1.000
    N2       N        0.38460    0.19540    0.95080    1.000
    C30      C        0.34220    0.17950    0.01420    1.000
    H25      H        0.37030    0.14430    0.04260    1.000
    C31      C        0.48450    0.15730    0.91450    1.000
    H26      H        0.52390    0.12800    0.94930    1.000
    H27      H        0.54820    0.18920    0.90060    1.000
    C32      C        0.45270    0.11580    0.85190    1.000
    H28      H        0.39610    0.14130    0.82130    1.000
    H29      H        0.40690    0.07660    0.86740    1.000
    C33      C        0.56370    0.09250    0.80870    1.000
    H30      H        0.54670    0.04700    0.79310    1.000
    H31      H        0.63800    0.09100    0.83940    1.000
    C34      C        0.42140    0.20620    0.69420    1.000
    H32      H        0.45150    0.24640    0.71260    1.000
    C35      C        0.40770    0.10010    0.66990    1.000
    H33      H        0.42450    0.05440    0.66740    1.000
    C36      C        0.30770    0.13260    0.64160    1.000
    H34      H        0.24240    0.11240    0.61590    1.000
    N3       N        0.82330    0.06317    0.21770    1.000
    N4       N        0.96830    0.98740    0.24030    1.000
    N5       N        0.11760    0.74980    0.14720    1.000
    N6       N        0.24960    0.67860    0.19600    1.000
    N7       N        0.47970    0.14790    0.70330    1.000
    N8       N        0.31610    0.20070    0.65610    1.000
    O1       O        0.71730    0.19792    0.16086    1.000
    O2       O        0.67560    0.16285    0.05230    1.000
    O3       O        0.06060    0.30660    0.10420    1.000
    O4       O        0.97190    0.21003    0.08530    1.000
    O5       O        0.51620    0.65654    0.24420    1.000
    O6       O        0.44400    0.55913    0.20872    1.000
    O7       O        0.74220    0.64076    0.32720    1.000
    O8       O        0.85640    0.70737    0.26560    1.000
    O9       O        0.63100    0.50975    0.96697    1.000
    O10      O        0.86460    0.50370    0.96339    1.000
    H35      H        0.99030    0.91440    0.31180    1.000
    H36      H        0.11640    0.95210    0.29610    1.000
    H37      H        0.93360    0.76170    0.12410    1.000
    H38      H        0.01730    0.81910    0.09430    1.000
    C37      C        0.07770    0.87760    0.22450    1.000
    H39      H        0.13590    0.84750    0.24880    1.000
    H40      H        0.12130    0.89680    0.18490    1.000
    C38      C        0.96380    0.83780    0.19720    1.000
    H41      H        0.89830    0.86840    0.18100    1.000
    H42      H        0.93020    0.81100    0.23510    1.000
    H43      H        0.36010    0.27430    0.88970    1.000
    H44      H        0.64510    0.17520    0.74370    1.000
    H45      H        0.64180    0.10080    0.71910    1.000
    N9       N        0.31710    0.17810    0.92430    1.000
    C39      C        0.28230    0.16610    0.99160    1.000
    H46      H        0.27860    0.12330    0.01070    1.000
    C40      C        0.36950    0.12920    0.87150    1.000
    H47      H        0.31770    0.12780    0.82870    1.000
    H48      H        0.37630    0.08450    0.89110    1.000
    C41      C        0.49890    0.15910    0.85800    1.000
    H49      H        0.53770    0.17200    0.90270    1.000
    H50      H        0.48820    0.19940    0.82990    1.000
    C42      C        0.58700    0.11200    0.82040    1.000
    H51      H        0.55540    0.06650    0.82250    1.000
    H52      H        0.67040    0.11310    0.84270    1.000
    Ni3      Ni       0.81535    0.73229    0.37298    1.000
    Ni4      Ni       0.33206    0.62160    0.27412    1.000
    S2       S        0.25001    0.99339    0.49969    1.000
    C43      C        0.27360    0.77690    0.42900    1.000
    C44      C        0.15610    0.80820    0.43200    1.000
    C45      C        0.14900    0.87430    0.45380    1.000
    H53      H        0.07100    0.89560    0.45650    1.000
    C46      C        0.25900    0.90860    0.47160    1.000
    C47      C        0.37490    0.87830    0.46890    1.000
    H54      H        0.44800    0.90210    0.48030    1.000
    C48      C        0.38170    0.81240    0.44910    1.000
    H55      H        0.45980    0.79110    0.44920    1.000
    C49      C        0.24030    0.03880    0.42030    1.000
    C50      C        0.12370    0.06380    0.39540    1.000
    H56      H        0.04990    0.05560    0.41980    1.000
    C51      C        0.12150    0.10060    0.33440    1.000
    H57      H        0.04440    0.11750    0.31820    1.000
    C52      C        0.22830    0.11390    0.29540    1.000
    C53      C        0.34420    0.08760    0.32000    1.000
    C54      C        0.34930    0.05020    0.38240    1.000
    H58      H        0.42610    0.03290    0.39860    1.000
    C55      C        0.29360    0.70610    0.40320    1.000
    C56      C        0.03430    0.77170    0.41330    1.000
    C57      C        0.46860    0.10150    0.28690    1.000
    C58      C        0.21180    0.15600    0.22970    1.000
    C59      C        0.14120    0.51390    0.24080    1.000
    H59      H        0.18720    0.49910    0.20250    1.000
    C60      C        0.08120    0.56970    0.33000    1.000
    H60      H        0.07830    0.60140    0.36580    1.000
    C61      C        0.99370    0.52340    0.31650    1.000
    H61      H        0.92000    0.51670    0.34140    1.000
    C62      C        0.95960    0.43330    0.22550    1.000
    H62      H        0.97730    0.43280    0.17560    1.000
    H63      H        0.87000    0.44170    0.23050    1.000
    C63      C        0.99630    0.29130    0.36470    1.000
    H64      H        0.06690    0.27170    0.34030    1.000
    H65      H        0.01740    0.29250    0.41460    1.000
    C64      C        0.99310    0.36410    0.25790    1.000
    H66      H        0.94070    0.33000    0.23570    1.000
    H67      H        0.08060    0.35370    0.24840    1.000
    C65      C        0.97370    0.36270    0.33780    1.000
    H68      H        0.88840    0.37670    0.34820    1.000
    H69      H        0.03220    0.39330    0.36110    1.000
    C66      C        0.85780    0.21090    0.29630    1.000
    H70      H        0.90930    0.20730    0.25740    1.000
    C67      C        0.78340    0.24410    0.39770    1.000
    H71      H        0.77310    0.26680    0.44010    1.000
    C68      C        0.70400    0.19890    0.36790    1.000
    H72      H        0.62940    0.18380    0.38750    1.000
    N10      N        0.74690    0.72280    0.47090    1.000
    C69      C        0.74450    0.76990    0.52200    1.000
    H73      H        0.78260    0.81180    0.51920    1.000
    C70      C        0.67980    0.74790    0.57710    1.000
    H74      H        0.67920    0.76440    0.62290    1.000
    C71      C        0.40520    0.63470    0.75590    1.000
    H75      H        0.36700    0.67660    0.74100    1.000
    H76      H        0.34530    0.61100    0.78470    1.000
    N11      N        0.61540    0.69540    0.54920    1.000
    C72      C        0.65780    0.67950    0.48580    1.000
    H77      H        0.62970    0.64430    0.45740    1.000
    C73      C        0.51550    0.65730    0.58550    1.000
    H78      H        0.47610    0.62800    0.55070    1.000
    H79      H        0.45180    0.68920    0.59940    1.000
    C74      C        0.54730    0.61580    0.64810    1.000
    H80      H        0.60390    0.64130    0.67870    1.000
    H81      H        0.59310    0.57660    0.63260    1.000
    C75      C        0.43630    0.59250    0.69130    1.000
    H82      H        0.45330    0.54700    0.70690    1.000
    H83      H        0.36200    0.59100    0.66060    1.000
    C76      C        0.57860    0.70620    0.80580    1.000
    H84      H        0.54850    0.74640    0.78740    1.000
    C77      C        0.59230    0.60010    0.83010    1.000
    H85      H        0.57550    0.55440    0.83260    1.000
    C78      C        0.69230    0.63260    0.85840    1.000
    H86      H        0.75760    0.61240    0.88410    1.000
    N12      N        0.17670    0.56317    0.28230    1.000
    N13      N        0.03170    0.48740    0.25970    1.000
    N14      N        0.88240    0.24980    0.35280    1.000
    N15      N        0.75040    0.17860    0.30400    1.000
    N16      N        0.52030    0.64790    0.79670    1.000
    N17      N        0.68390    0.70070    0.84390    1.000
    O11      O        0.28270    0.69792    0.33914    1.000
    O12      O        0.32440    0.66285    0.44770    1.000
    O13      O        0.93940    0.80660    0.39580    1.000
    O14      O        0.02810    0.71003    0.41470    1.000
    O15      O        0.48380    0.15654    0.25580    1.000
    O16      O        0.55600    0.05913    0.29128    1.000
    O17      O        0.25780    0.14076    0.17280    1.000
    O18      O        0.14360    0.20737    0.23440    1.000
    O19      O        0.36900    0.00975    0.53303    1.000
    O20      O        0.13540    0.00370    0.53661    1.000
    H87      H        0.00970    0.41440    0.18820    1.000
    H88      H        0.88360    0.45210    0.20390    1.000
    H89      H        0.06640    0.26170    0.37590    1.000
    H90      H        0.98270    0.31910    0.40570    1.000
    C79      C        0.92230    0.37760    0.27550    1.000
    H91      H        0.86410    0.34750    0.25120    1.000
    H92      H        0.87870    0.39680    0.31510    1.000
    C80      C        0.03620    0.33780    0.30280    1.000
    H93      H        0.10170    0.36840    0.31900    1.000
    H94      H        0.06980    0.31100    0.26490    1.000
    H95      H        0.63990    0.77430    0.61030    1.000
    H96      H        0.35490    0.67520    0.75630    1.000
    H97      H        0.35820    0.60080    0.78090    1.000
    N18      N        0.68290    0.67810    0.57570    1.000
    C81      C        0.71770    0.66610    0.50840    1.000
    H98      H        0.72140    0.62330    0.48930    1.000
    C82      C        0.63050    0.62920    0.62850    1.000
    H99      H        0.68230    0.62780    0.67130    1.000
    H100     H        0.62370    0.58450    0.60890    1.000
    C83      C        0.50110    0.65910    0.64200    1.000
    H101     H        0.46230    0.67200    0.59730    1.000
    H102     H        0.51180    0.69940    0.67010    1.000
    C84      C        0.41300    0.61200    0.67960    1.000
    H103     H        0.44460    0.56650    0.67750    1.000
    H104     H        0.32960    0.61310    0.65730    1.000
    Ni5      Ni       0.81535    0.76771    0.87298    1.000
    Ni6      Ni       0.33206    0.87840    0.77412    1.000
    S3       S        0.25001    0.50661    0.99969    1.000
    C85      C        0.27360    0.72310    0.92900    1.000
    C86      C        0.15610    0.69180    0.93200    1.000
    C87      C        0.14900    0.62570    0.95380    1.000
    H105     H        0.07100    0.60440    0.95650    1.000
    C88      C        0.25900    0.59140    0.97160    1.000
    C89      C        0.37490    0.62170    0.96890    1.000
    H106     H        0.44800    0.59790    0.98030    1.000
    C90      C        0.38170    0.68760    0.94910    1.000
    H107     H        0.45980    0.70890    0.94920    1.000
    C91      C        0.24030    0.46120    0.92030    1.000
    C92      C        0.12370    0.43620    0.89540    1.000
    H108     H        0.04990    0.44440    0.91980    1.000
    C93      C        0.12150    0.39940    0.83440    1.000
    H109     H        0.04440    0.38250    0.81820    1.000
    C94      C        0.22830    0.38610    0.79540    1.000
    C95      C        0.34420    0.41240    0.82000    1.000
    C96      C        0.34930    0.44980    0.88240    1.000
    H110     H        0.42610    0.46710    0.89860    1.000
    C97      C        0.29360    0.79390    0.90320    1.000
    C98      C        0.03430    0.72830    0.91330    1.000
    C99      C        0.46860    0.39850    0.78690    1.000
    C100     C        0.21180    0.34400    0.72970    1.000
    C101     C        0.14120    0.98610    0.74080    1.000
    H111     H        0.18720    0.00090    0.70250    1.000
    C102     C        0.08120    0.93030    0.83000    1.000
    H112     H        0.07830    0.89860    0.86580    1.000
    C103     C        0.99370    0.97660    0.81650    1.000
    H113     H        0.92000    0.98330    0.84140    1.000
    C104     C        0.95960    0.06670    0.72550    1.000
    H114     H        0.97730    0.06720    0.67560    1.000
    H115     H        0.87000    0.05830    0.73050    1.000
    C105     C        0.99630    0.20870    0.86470    1.000
    H116     H        0.06690    0.22830    0.84030    1.000
    H117     H        0.01740    0.20750    0.91460    1.000
    C106     C        0.99310    0.13590    0.75790    1.000
    H118     H        0.94070    0.17000    0.73570    1.000
    H119     H        0.08060    0.14630    0.74840    1.000
    C107     C        0.97370    0.13730    0.83780    1.000
    H120     H        0.88840    0.12330    0.84820    1.000
    H121     H        0.03220    0.10670    0.86110    1.000
    C108     C        0.85780    0.28910    0.79630    1.000
    H122     H        0.90930    0.29270    0.75740    1.000
    C109     C        0.78340    0.25590    0.89770    1.000
    H123     H        0.77310    0.23320    0.94010    1.000
    C110     C        0.70400    0.30110    0.86790    1.000
    H124     H        0.62940    0.31620    0.88750    1.000
    N19      N        0.74690    0.77720    0.97090    1.000
    C111     C        0.74450    0.73010    0.02200    1.000
    H125     H        0.78260    0.68820    0.01920    1.000
    C112     C        0.67980    0.75210    0.07710    1.000
    H126     H        0.67920    0.73560    0.12290    1.000
    C113     C        0.40520    0.86530    0.25590    1.000
    H127     H        0.36700    0.82340    0.24100    1.000
    H128     H        0.34530    0.88900    0.28470    1.000
    N20      N        0.61540    0.80460    0.04920    1.000
    C114     C        0.65780    0.82050    0.98580    1.000
    H129     H        0.62970    0.85570    0.95740    1.000
    C115     C        0.51550    0.84270    0.08550    1.000
    H130     H        0.47610    0.87200    0.05070    1.000
    H131     H        0.45180    0.81080    0.09940    1.000
    C116     C        0.54730    0.88420    0.14810    1.000
    H132     H        0.60390    0.85870    0.17870    1.000
    H133     H        0.59310    0.92340    0.13260    1.000
    C117     C        0.43630    0.90750    0.19130    1.000
    H134     H        0.45330    0.95300    0.20690    1.000
    H135     H        0.36200    0.90900    0.16060    1.000
    C118     C        0.57860    0.79380    0.30580    1.000
    H136     H        0.54850    0.75360    0.28740    1.000
    C119     C        0.59230    0.89990    0.33010    1.000
    H137     H        0.57550    0.94560    0.33260    1.000
    C120     C        0.69230    0.86740    0.35840    1.000
    H138     H        0.75760    0.88760    0.38410    1.000
    N21      N        0.17670    0.93683    0.78230    1.000
    N22      N        0.03170    0.01260    0.75970    1.000
    N23      N        0.88240    0.25020    0.85280    1.000
    N24      N        0.75040    0.32140    0.80400    1.000
    N25      N        0.52030    0.85210    0.29670    1.000
    N26      N        0.68390    0.79930    0.34390    1.000
    O21      O        0.28270    0.80208    0.83914    1.000
    O22      O        0.32440    0.83715    0.94770    1.000
    O23      O        0.93940    0.69340    0.89580    1.000
    O24      O        0.02810    0.78997    0.91470    1.000
    O25      O        0.48380    0.34346    0.75580    1.000
    O26      O        0.55600    0.44087    0.79128    1.000
    O27      O        0.25780    0.35924    0.67280    1.000
    O28      O        0.14360    0.29263    0.73440    1.000
    O29      O        0.36900    0.49025    0.03303    1.000
    O30      O        0.13540    0.49630    0.03661    1.000
    H139     H        0.00970    0.08560    0.68820    1.000
    H140     H        0.88360    0.04790    0.70390    1.000
    H141     H        0.06640    0.23830    0.87590    1.000
    H142     H        0.98270    0.18090    0.90570    1.000
    C121     C        0.92230    0.12240    0.77550    1.000
    H143     H        0.86410    0.15250    0.75120    1.000
    H144     H        0.87870    0.10320    0.81510    1.000
    C122     C        0.03620    0.16220    0.80280    1.000
    H145     H        0.10170    0.13160    0.81900    1.000
    H146     H        0.06980    0.18900    0.76490    1.000
    H147     H        0.63990    0.72570    0.11030    1.000
    H148     H        0.35490    0.82480    0.25630    1.000
    H149     H        0.35820    0.89920    0.28090    1.000
    N27      N        0.68290    0.82190    0.07570    1.000
    C123     C        0.71770    0.83390    0.00840    1.000
    H150     H        0.72140    0.87670    0.98930    1.000
    C124     C        0.63050    0.87080    0.12850    1.000
    H151     H        0.68230    0.87220    0.17130    1.000
    H152     H        0.62370    0.91550    0.10890    1.000
    C125     C        0.50110    0.84090    0.14200    1.000
    H153     H        0.46230    0.82800    0.09730    1.000
    H154     H        0.51180    0.80060    0.17010    1.000
    C126     C        0.41300    0.88800    0.17960    1.000
    H155     H        0.44460    0.93350    0.17750    1.000
    H156     H        0.32960    0.88690    0.15730    1.000
    Ni7      Ni       0.18465    0.26771    0.62702    1.000
    Ni8      Ni       0.66794    0.37840    0.72588    1.000
    S4       S        0.74999    0.00661    0.50031    1.000
    C127     C        0.72640    0.22310    0.57100    1.000
    C128     C        0.84390    0.19180    0.56800    1.000
    C129     C        0.85100    0.12570    0.54620    1.000
    H157     H        0.92900    0.10440    0.54350    1.000
    C130     C        0.74100    0.09140    0.52840    1.000
    C131     C        0.62510    0.12170    0.53110    1.000
    H158     H        0.55200    0.09790    0.51970    1.000
    C132     C        0.61830    0.18760    0.55090    1.000
    H159     H        0.54020    0.20890    0.55080    1.000
    C133     C        0.75970    0.96120    0.57970    1.000
    C134     C        0.87630    0.93620    0.60460    1.000
    H160     H        0.95010    0.94440    0.58020    1.000
    C135     C        0.87850    0.89940    0.66560    1.000
    H161     H        0.95560    0.88250    0.68180    1.000
    C136     C        0.77170    0.88610    0.70460    1.000
    C137     C        0.65580    0.91240    0.68000    1.000
    C138     C        0.65070    0.94980    0.61760    1.000
    H162     H        0.57390    0.96710    0.60140    1.000
    C139     C        0.70640    0.29390    0.59680    1.000
    C140     C        0.96570    0.22830    0.58670    1.000
    C141     C        0.53140    0.89850    0.71310    1.000
    C142     C        0.78820    0.84400    0.77030    1.000
    C143     C        0.85880    0.48610    0.75920    1.000
    H163     H        0.81280    0.50090    0.79750    1.000
    C144     C        0.91880    0.43030    0.67000    1.000
    H164     H        0.92170    0.39860    0.63420    1.000
    C145     C        0.00630    0.47660    0.68350    1.000
    H165     H        0.08000    0.48330    0.65860    1.000
    C146     C        0.04040    0.56670    0.77450    1.000
    H166     H        0.02270    0.56720    0.82440    1.000
    H167     H        0.13000    0.55830    0.76950    1.000
    C147     C        0.00370    0.70870    0.63530    1.000
    H168     H        0.93310    0.72830    0.65970    1.000
    H169     H        0.98260    0.70750    0.58540    1.000
    C148     C        0.00690    0.63590    0.74210    1.000
    H170     H        0.05930    0.67000    0.76430    1.000
    H171     H        0.91940    0.64630    0.75160    1.000
    C149     C        0.02630    0.63730    0.66220    1.000
    H172     H        0.11160    0.62330    0.65180    1.000
    H173     H        0.96780    0.60670    0.63890    1.000
    C150     C        0.14220    0.78910    0.70370    1.000
    H174     H        0.09070    0.79270    0.74260    1.000
    C151     C        0.21660    0.75590    0.60230    1.000
    H175     H        0.22690    0.73320    0.55990    1.000
    C152     C        0.29600    0.80110    0.63210    1.000
    H176     H        0.37060    0.81620    0.61250    1.000
    N28      N        0.25310    0.27720    0.52910    1.000
    C153     C        0.25550    0.23010    0.47800    1.000
    H177     H        0.21740    0.18820    0.48080    1.000
    C154     C        0.32020    0.25210    0.42290    1.000
    H178     H        0.32080    0.23560    0.37710    1.000
    C155     C        0.59480    0.36530    0.24410    1.000
    H179     H        0.63300    0.32340    0.25900    1.000
    H180     H        0.65470    0.38900    0.21530    1.000
    N29      N        0.38460    0.30460    0.45080    1.000
    C156     C        0.34220    0.32050    0.51420    1.000
    H181     H        0.37030    0.35570    0.54260    1.000
    C157     C        0.48450    0.34270    0.41450    1.000
    H182     H        0.52390    0.37200    0.44930    1.000
    H183     H        0.54820    0.31080    0.40060    1.000
    C158     C        0.45270    0.38420    0.35190    1.000
    H184     H        0.39610    0.35870    0.32130    1.000
    H185     H        0.40690    0.42340    0.36740    1.000
    C159     C        0.56370    0.40750    0.30870    1.000
    H186     H        0.54670    0.45300    0.29310    1.000
    H187     H        0.63800    0.40900    0.33940    1.000
    C160     C        0.42140    0.29380    0.19420    1.000
    H188     H        0.45150    0.25360    0.21260    1.000
    C161     C        0.40770    0.39990    0.16990    1.000
    H189     H        0.42450    0.44560    0.16740    1.000
    C162     C        0.30770    0.36740    0.14160    1.000
    H190     H        0.24240    0.38760    0.11590    1.000
    N30      N        0.82330    0.43683    0.71770    1.000
    N31      N        0.96830    0.51260    0.74030    1.000
    N32      N        0.11760    0.75020    0.64720    1.000
    N33      N        0.24960    0.82140    0.69600    1.000
    N34      N        0.47970    0.35210    0.20330    1.000
    N35      N        0.31610    0.29930    0.15610    1.000
    O31      O        0.71730    0.30208    0.66086    1.000
    O32      O        0.67560    0.33715    0.55230    1.000
    O33      O        0.06060    0.19340    0.60420    1.000
    O34      O        0.97190    0.28997    0.58530    1.000
    O35      O        0.51620    0.84346    0.74420    1.000
    O36      O        0.44400    0.94087    0.70872    1.000
    O37      O        0.74220    0.85924    0.82720    1.000
    O38      O        0.85640    0.79263    0.76560    1.000
    O39      O        0.63100    0.99025    0.46697    1.000
    O40      O        0.86460    0.99630    0.46339    1.000
    H191     H        0.99030    0.58560    0.81180    1.000
    H192     H        0.11640    0.54790    0.79610    1.000
    H193     H        0.93360    0.73830    0.62410    1.000
    H194     H        0.01730    0.68090    0.59430    1.000
    C163     C        0.07770    0.62240    0.72450    1.000
    H195     H        0.13590    0.65250    0.74880    1.000
    H196     H        0.12130    0.60320    0.68490    1.000
    C164     C        0.96380    0.66220    0.69720    1.000
    H197     H        0.89830    0.63160    0.68100    1.000
    H198     H        0.93020    0.68900    0.73510    1.000
    H199     H        0.36010    0.22570    0.38970    1.000
    H200     H        0.64510    0.32480    0.24370    1.000
    H201     H        0.64180    0.39920    0.21910    1.000
    N36      N        0.31710    0.32190    0.42430    1.000
    C165     C        0.28230    0.33390    0.49160    1.000
    H202     H        0.27860    0.37670    0.51070    1.000
    C166     C        0.36950    0.37080    0.37150    1.000
    H203     H        0.31770    0.37220    0.32870    1.000
    H204     H        0.37630    0.41550    0.39110    1.000
    C167     C        0.49890    0.34090    0.35800    1.000
    H205     H        0.53770    0.32800    0.40270    1.000
    H206     H        0.48820    0.30060    0.32990    1.000
    C168     C        0.58700    0.38800    0.32040    1.000
    H207     H        0.55540    0.43350    0.32250    1.000
    H208     H        0.67040    0.38690    0.34270    1.000
