# CIF file generated by openbabel 3.1.0, see https://openbabel.org
data_I
_chemical_name_common 'image0'
_cell_length_a 27.59
_cell_length_b 27.59
_cell_length_c 21.891
_cell_angle_alpha 90
_cell_angle_beta 90
_cell_angle_gamma 120
_space_group_name_H-M_alt 'P 1'
_space_group_name_Hall 'P 1'
loop_
    _symmetry_equiv_pos_as_xyz
    x,y,z
loop_
    _atom_site_label
    _atom_site_type_symbol
    _atom_site_fract_x
    _atom_site_fract_y
    _atom_site_fract_z
    _atom_site_occupancy
    Zn1      Zn       0.88055    0.54806    0.47334    1.000
    Zn2      Zn       0.66751    0.54801    0.47338    1.000
    N1       N        0.59880    0.48220    0.50610    1.000
    N2       N        0.66650    0.53060    0.28250    1.000
    N3       N        0.51780    0.40090    0.50620    1.000
    N4       N        0.81780    0.55370    0.50690    1.000
    N5       N        0.66660    0.53090    0.38400    1.000
    N6       N        0.73570    0.55310    0.50710    1.000
    C1       C        0.55510    0.44500    0.47590    1.000
    C2       C        0.78220    0.56120    0.48300    1.000
    C3       C        0.66600    0.48430    0.30330    1.000
    H1       H        0.66480    0.45570    0.27820    1.000
    C4       C        0.66670    0.55760    0.33340    1.000
    C5       C        0.52460    0.42390    0.56530    1.000
    C6       C        0.57630    0.47470    0.56450    1.000
    C7       C        0.73280    0.51170    0.55450    1.000
    H2       H        0.70160    0.48930    0.58000    1.000
    C8       C        0.49380    0.40400    0.61780    1.000
    H3       H        0.45870    0.37030    0.61730    1.000
    C9       C        0.59680    0.50670    0.61790    1.000
    H4       H        0.63030    0.54200    0.61800    1.000
    C10      C        0.56440    0.48340    0.67180    1.000
    C11      C        0.51520    0.43420    0.67230    1.000
    C12      C        0.77860    0.51200    0.55440    1.000
    H5       H        0.78740    0.48960    0.58000    1.000
    C13      C        0.79920    0.59800    0.42820    1.000
    H6       H        0.83980    0.62360    0.42930    1.000
    H7       H        0.77990    0.61960    0.42830    1.000
    H8       H        0.78940    0.57500    0.39120    1.000
    C14      C        0.66750    0.48460    0.36320    1.000
    H9       H        0.66910    0.45720    0.38800    1.000
    C15      C        0.66650    0.61370    0.33350    1.000
    H10      H        0.70310    0.64390    0.31980    1.000
    H11      H        0.65910    0.62170    0.37490    1.000
    H12      H        0.63740    0.61090    0.30580    1.000
    Cl1      Cl       0.59320    0.51960    0.73890    1.000
    N7       N        0.04710    0.66120    0.50680    1.000
    N8       N        0.95340    0.61380    0.49370    1.000
    C16      C        0.99990    0.61370    0.50030    1.000
    H13      H        0.00000    0.57930    0.50040    1.000
    C17      C        0.03500    0.77900    0.43850    1.000
    C18      C        0.97700    0.75120    0.43490    1.000
    C19      C        0.94550    0.69690    0.45710    1.000
    C20      C        0.97220    0.67040    0.48290    1.000
    C21      C        0.03020    0.69820    0.48660    1.000
    C22      C        0.06170    0.75250    0.46430    1.000
    Cl2      Cl       0.06400    0.84990    0.41900    1.000
    Cl3      Cl       0.90280    0.70510    0.68670    1.000
    C23      C        0.77050    0.59160    0.55410    1.000
    C24      C        0.82070    0.59140    0.55340    1.000
    C25      C        0.76180    0.62530    0.60010    1.000
    C26      C        0.53150    0.46780    0.42690    1.000
    H14      H        0.51230    0.48540    0.44680    1.000
    H15      H        0.50500    0.43700    0.40090    1.000
    H16      H        0.56230    0.49570    0.40180    1.000
    C27      C        0.60130    0.44550    0.55150    1.000
    H17      H        0.63250    0.45440    0.57710    1.000
    C28      C        0.55460    0.39890    0.55180    1.000
    H18      H        0.54570    0.36810    0.57790    1.000
    C29      C        0.77130    0.54400    0.47300    1.000
    C30      C        0.86450    0.62730    0.59920    1.000
    C31      C        0.80230    0.65550    0.63780    1.000
    C32      C        0.75620    0.70050    0.47510    1.000
    C33      C        0.69850    0.67050    0.48350    1.000
    C34      C        0.66860    0.69850    0.48880    1.000
    C35      C        0.69640    0.75660    0.48590    1.000
    C36      C        0.75400    0.78670    0.47750    1.000
    C37      C        0.78390    0.75860    0.47220    1.000
    C38      C        0.85250    0.65690    0.63660    1.000
    C39      C        0.69200    0.75200    0.46200    1.000
    C40      C        0.73790    0.78420    0.42700    1.000
    C41      C        0.74900    0.69100    0.45600    1.000
    C42      C        0.77530    0.75100    0.43800    1.000
    C43      C        0.69800    0.75600    0.51900    1.000
    C44      C        0.76300    0.78410    0.52750    1.000
    C45      C        0.75800    0.69900    0.51000    1.000
    Cl4      Cl       0.79250    0.85520    0.47400    1.000
    Cl5      Cl       0.85330    0.79690    0.46000    1.000
    Cl6      Cl       0.84110    0.78290    0.40400    1.000
    Cl7      Cl       0.78510    0.84970    0.41800    1.000
    Cl8      Cl       0.85620    0.79070    0.53100    1.000
    Cl9      Cl       0.78050    0.84030    0.59800    1.000
    Cl10     Cl       0.79660    0.85340    0.54700    1.000
    C46      C        0.78940    0.75350    0.52100    1.000
    Cl11     Cl       0.47960    0.40660    0.73880    1.000
    Cl12     Cl       0.86440    0.62910    0.64640    1.000
    Zn3      Zn       0.54722    0.88139    0.80667    1.000
    Zn4      Zn       0.33418    0.88134    0.80671    1.000
    N9       N        0.26547    0.81553    0.83943    1.000
    N10      N        0.33317    0.86393    0.61583    1.000
    N11      N        0.18447    0.73423    0.83953    1.000
    N12      N        0.48447    0.88703    0.84023    1.000
    N13      N        0.33327    0.86423    0.71733    1.000
    N14      N        0.40237    0.88643    0.84043    1.000
    C47      C        0.22177    0.77833    0.80923    1.000
    C48      C        0.44887    0.89453    0.81633    1.000
    C49      C        0.33267    0.81763    0.63663    1.000
    H19      H        0.33147    0.78903    0.61153    1.000
    C50      C        0.33337    0.89093    0.66673    1.000
    C51      C        0.19127    0.75723    0.89863    1.000
    C52      C        0.24297    0.80803    0.89783    1.000
    C53      C        0.39947    0.84503    0.88783    1.000
    H20      H        0.36827    0.82263    0.91333    1.000
    C54      C        0.16047    0.73733    0.95113    1.000
    H21      H        0.12537    0.70363    0.95063    1.000
    C55      C        0.26347    0.84003    0.95123    1.000
    H22      H        0.29697    0.87533    0.95133    1.000
    C56      C        0.23107    0.81673    0.00513    1.000
    C57      C        0.18187    0.76753    0.00563    1.000
    C58      C        0.44527    0.84533    0.88773    1.000
    H23      H        0.45407    0.82293    0.91333    1.000
    C59      C        0.46587    0.93133    0.76153    1.000
    H24      H        0.50647    0.95693    0.76263    1.000
    H25      H        0.44657    0.95293    0.76163    1.000
    H26      H        0.45607    0.90833    0.72453    1.000
    C60      C        0.33417    0.81793    0.69653    1.000
    H27      H        0.33577    0.79053    0.72133    1.000
    C61      C        0.33317    0.94703    0.66683    1.000
    H28      H        0.36977    0.97723    0.65313    1.000
    H29      H        0.32577    0.95503    0.70823    1.000
    H30      H        0.30407    0.94423    0.63913    1.000
    Cl13     Cl       0.25987    0.85293    0.07223    1.000
    N15      N        0.71377    0.99453    0.84013    1.000
    N16      N        0.62007    0.94713    0.82703    1.000
    C62      C        0.66657    0.94703    0.83363    1.000
    H31      H        0.66667    0.91263    0.83373    1.000
    C63      C        0.70167    0.11233    0.77183    1.000
    C64      C        0.64367    0.08453    0.76823    1.000
    C65      C        0.61217    0.03023    0.79043    1.000
    C66      C        0.63887    0.00373    0.81623    1.000
    C67      C        0.69687    0.03153    0.81993    1.000
    C68      C        0.72837    0.08583    0.79763    1.000
    Cl14     Cl       0.73067    0.18323    0.75233    1.000
    Cl15     Cl       0.56947    0.03843    0.02003    1.000
    C69      C        0.43717    0.92493    0.88743    1.000
    C70      C        0.48737    0.92473    0.88673    1.000
    C71      C        0.42847    0.95863    0.93343    1.000
    C72      C        0.19817    0.80113    0.76023    1.000
    H32      H        0.17897    0.81873    0.78013    1.000
    H33      H        0.17167    0.77033    0.73423    1.000
    H34      H        0.22897    0.82903    0.73513    1.000
    C73      C        0.26797    0.77883    0.88483    1.000
    H35      H        0.29917    0.78773    0.91043    1.000
    C74      C        0.22127    0.73223    0.88513    1.000
    H36      H        0.21237    0.70143    0.91123    1.000
    C75      C        0.43797    0.87733    0.80633    1.000
    C76      C        0.53117    0.96063    0.93253    1.000
    C77      C        0.46897    0.98883    0.97113    1.000
    C78      C        0.42287    0.03383    0.80843    1.000
    C79      C        0.36517    0.00383    0.81683    1.000
    C80      C        0.33527    0.03183    0.82213    1.000
    C81      C        0.36307    0.08993    0.81923    1.000
    C82      C        0.42067    0.12003    0.81083    1.000
    C83      C        0.45057    0.09193    0.80553    1.000
    C84      C        0.51917    0.99023    0.96993    1.000
    C85      C        0.35867    0.08533    0.79533    1.000
    C86      C        0.40457    0.11753    0.76033    1.000
    C87      C        0.41567    0.02433    0.78933    1.000
    C88      C        0.44197    0.08433    0.77133    1.000
    C89      C        0.36467    0.08933    0.85233    1.000
    C90      C        0.42967    0.11743    0.86083    1.000
    C91      C        0.42467    0.03233    0.84333    1.000
    Cl16     Cl       0.45917    0.18853    0.80733    1.000
    Cl17     Cl       0.51997    0.13023    0.79333    1.000
    Cl18     Cl       0.50777    0.11623    0.73733    1.000
    Cl19     Cl       0.45177    0.18303    0.75133    1.000
    Cl20     Cl       0.52287    0.12403    0.86433    1.000
    Cl21     Cl       0.44717    0.17363    0.93133    1.000
    Cl22     Cl       0.46327    0.18673    0.88033    1.000
    C92      C        0.45607    0.08683    0.85433    1.000
    Cl23     Cl       0.14627    0.73993    0.07213    1.000
    Cl24     Cl       0.53107    0.96243    0.97973    1.000
    Zn5      Zn       0.21388    0.21473    0.14001    1.000
    Zn6      Zn       0.00084    0.21468    0.14005    1.000
    N17      N        0.93213    0.14887    0.17277    1.000
    N18      N        0.99983    0.19727    0.94917    1.000
    N19      N        0.85113    0.06757    0.17287    1.000
    N20      N        0.15113    0.22037    0.17357    1.000
    N21      N        0.99993    0.19757    0.05067    1.000
    N22      N        0.06903    0.21977    0.17377    1.000
    C93      C        0.88843    0.11167    0.14257    1.000
    C94      C        0.11553    0.22787    0.14967    1.000
    C95      C        0.99933    0.15097    0.96997    1.000
    H37      H        0.99813    0.12237    0.94487    1.000
    C96      C        0.00003    0.22427    0.00007    1.000
    C97      C        0.85793    0.09057    0.23197    1.000
    C98      C        0.90963    0.14137    0.23117    1.000
    C99      C        0.06613    0.17837    0.22117    1.000
    H38      H        0.03493    0.15597    0.24667    1.000
    C100     C        0.82713    0.07067    0.28447    1.000
    H39      H        0.79203    0.03697    0.28397    1.000
    C101     C        0.93013    0.17337    0.28457    1.000
    H40      H        0.96363    0.20867    0.28467    1.000
    C102     C        0.89773    0.15007    0.33847    1.000
    C103     C        0.84853    0.10087    0.33897    1.000
    C104     C        0.11193    0.17867    0.22107    1.000
    H41      H        0.12073    0.15627    0.24667    1.000
    C105     C        0.13253    0.26467    0.09487    1.000
    H42      H        0.17313    0.29027    0.09597    1.000
    H43      H        0.11323    0.28627    0.09497    1.000
    H44      H        0.12273    0.24167    0.05787    1.000
    C106     C        0.00083    0.15127    0.02987    1.000
    H45      H        0.00243    0.12387    0.05467    1.000
    C107     C        0.99983    0.28037    0.00017    1.000
    H46      H        0.03643    0.31057    0.98647    1.000
    H47      H        0.99243    0.28837    0.04157    1.000
    H48      H        0.97073    0.27757    0.97247    1.000
    Cl25     Cl       0.92653    0.18627    0.40557    1.000
    N23      N        0.38043    0.32787    0.17347    1.000
    N24      N        0.28673    0.28047    0.16037    1.000
    C108     C        0.33323    0.28037    0.16697    1.000
    H49      H        0.33333    0.24597    0.16707    1.000
    C109     C        0.36833    0.44567    0.10517    1.000
    C110     C        0.31033    0.41787    0.10157    1.000
    C111     C        0.27883    0.36357    0.12377    1.000
    C112     C        0.30553    0.33707    0.14957    1.000
    C113     C        0.36353    0.36487    0.15327    1.000
    C114     C        0.39503    0.41917    0.13097    1.000
    Cl26     Cl       0.39733    0.51657    0.08567    1.000
    Cl27     Cl       0.23613    0.37177    0.35337    1.000
    C115     C        0.10383    0.25827    0.22077    1.000
    C116     C        0.15403    0.25807    0.22007    1.000
    C117     C        0.09513    0.29197    0.26677    1.000
    C118     C        0.86483    0.13447    0.09357    1.000
    H50      H        0.84563    0.15207    0.11347    1.000
    H51      H        0.83833    0.10367    0.06757    1.000
    H52      H        0.89563    0.16237    0.06847    1.000
    C119     C        0.93463    0.11217    0.21817    1.000
    H53      H        0.96583    0.12107    0.24377    1.000
    C120     C        0.88793    0.06557    0.21847    1.000
    H54      H        0.87903    0.03477    0.24457    1.000
    C121     C        0.10463    0.21067    0.13967    1.000
    C122     C        0.19783    0.29397    0.26587    1.000
    C123     C        0.13563    0.32217    0.30447    1.000
    C124     C        0.08953    0.36717    0.14177    1.000
    C125     C        0.03183    0.33717    0.15017    1.000
    C126     C        0.00193    0.36517    0.15547    1.000
    C127     C        0.02973    0.42327    0.15257    1.000
    C128     C        0.08733    0.45337    0.14417    1.000
    C129     C        0.11723    0.42527    0.13887    1.000
    C130     C        0.18583    0.32357    0.30327    1.000
    C131     C        0.02533    0.41867    0.12867    1.000
    C132     C        0.07123    0.45087    0.09367    1.000
    C133     C        0.08233    0.35767    0.12267    1.000
    C134     C        0.10863    0.41767    0.10467    1.000
    C135     C        0.03133    0.42267    0.18567    1.000
    C136     C        0.09633    0.45077    0.19417    1.000
    C137     C        0.09133    0.36567    0.17667    1.000
    Cl28     Cl       0.12583    0.52187    0.14067    1.000
    Cl29     Cl       0.18663    0.46357    0.12667    1.000
    Cl30     Cl       0.17443    0.44957    0.07067    1.000
    Cl31     Cl       0.11843    0.51637    0.08467    1.000
    Cl32     Cl       0.18953    0.45737    0.19767    1.000
    Cl33     Cl       0.11383    0.50697    0.26467    1.000
    Cl34     Cl       0.12993    0.52007    0.21367    1.000
    C138     C        0.12273    0.42017    0.18767    1.000
    Cl35     Cl       0.81293    0.07327    0.40547    1.000
    Cl36     Cl       0.19773    0.29577    0.31307    1.000
    Zn7      Zn       0.45194    0.33249    0.47334    1.000
    Zn8      Zn       0.45199    0.11950    0.47338    1.000
    N25      N        0.51780    0.11660    0.50610    1.000
    N26      N        0.46940    0.13590    0.28250    1.000
    N27      N        0.59910    0.11690    0.50620    1.000
    N28      N        0.44630    0.26410    0.50690    1.000
    N29      N        0.46910    0.13570    0.38400    1.000
    N30      N        0.44690    0.18260    0.50710    1.000
    C139     C        0.55500    0.11010    0.47590    1.000
    C140     C        0.43880    0.22100    0.48300    1.000
    C141     C        0.51570    0.18170    0.30330    1.000
    H55      H        0.54430    0.20910    0.27820    1.000
    C142     C        0.44240    0.10910    0.33340    1.000
    C143     C        0.57610    0.10070    0.56530    1.000
    C144     C        0.52530    0.10160    0.56450    1.000
    C145     C        0.48830    0.22110    0.55450    1.000
    H56      H        0.51070    0.21230    0.58000    1.000
    C146     C        0.59600    0.08980    0.61780    1.000
    H57      H        0.62970    0.08840    0.61730    1.000
    C147     C        0.49330    0.09010    0.61790    1.000
    H58      H        0.45800    0.08830    0.61800    1.000
    C148     C        0.51660    0.08100    0.67180    1.000
    C149     C        0.56580    0.08100    0.67230    1.000
    C150     C        0.48800    0.26660    0.55440    1.000
    H59      H        0.51040    0.29780    0.58000    1.000
    C151     C        0.40200    0.20120    0.42820    1.000
    H60      H        0.37640    0.21620    0.42930    1.000
    H61      H        0.38040    0.16030    0.42830    1.000
    H62      H        0.42500    0.21440    0.39120    1.000
    C152     C        0.51540    0.18290    0.36320    1.000
    H63      H        0.54280    0.21190    0.38800    1.000
    C153     C        0.38630    0.05280    0.33350    1.000
    H64      H        0.35610    0.05920    0.31980    1.000
    H65      H        0.37830    0.03740    0.37490    1.000
    H66      H        0.38910    0.02650    0.30580    1.000
    Cl37     Cl       0.48040    0.07360    0.73890    1.000
    N31      N        0.33880    0.38590    0.50680    1.000
    N32      N        0.38620    0.33960    0.49370    1.000
    C154     C        0.38630    0.38620    0.50030    1.000
    H67      H        0.42070    0.42070    0.50040    1.000
    C155     C        0.22100    0.25600    0.43850    1.000
    C156     C        0.24880    0.22580    0.43490    1.000
    C157     C        0.30310    0.24860    0.45710    1.000
    C158     C        0.32960    0.30180    0.48290    1.000
    C159     C        0.30180    0.33200    0.48660    1.000
    C160     C        0.24750    0.30920    0.46430    1.000
    Cl38     Cl       0.15010    0.21410    0.41900    1.000
    Cl39     Cl       0.29490    0.19770    0.68670    1.000
    C161     C        0.40840    0.17890    0.55410    1.000
    C162     C        0.40860    0.22930    0.55340    1.000
    C163     C        0.37470    0.13650    0.60010    1.000
    C164     C        0.53220    0.06370    0.42690    1.000
    H68      H        0.51460    0.02690    0.44680    1.000
    H69      H        0.56300    0.06800    0.40090    1.000
    H70      H        0.50430    0.06660    0.40180    1.000
    C165     C        0.55450    0.15580    0.55150    1.000
    H71      H        0.54560    0.17810    0.57710    1.000
    C166     C        0.60110    0.15570    0.55180    1.000
    H72      H        0.63190    0.17760    0.57790    1.000
    C167     C        0.45600    0.22730    0.47300    1.000
    C168     C        0.37270    0.23720    0.59920    1.000
    C169     C        0.34450    0.14680    0.63780    1.000
    C170     C        0.29950    0.05570    0.47510    1.000
    C171     C        0.32950    0.02800    0.48350    1.000
    C172     C        0.30150    0.97010    0.48880    1.000
    C173     C        0.24340    0.93980    0.48590    1.000
    C174     C        0.21330    0.96730    0.47750    1.000
    C175     C        0.24140    0.02530    0.47220    1.000
    C176     C        0.34310    0.19560    0.63660    1.000
    C177     C        0.24800    0.94000    0.46200    1.000
    C178     C        0.21580    0.95370    0.42700    1.000
    C179     C        0.30900    0.05800    0.45600    1.000
    C180     C        0.24900    0.02430    0.43800    1.000
    C181     C        0.24400    0.94200    0.51900    1.000
    C182     C        0.21590    0.97890    0.52750    1.000
    C183     C        0.30100    0.05900    0.51000    1.000
    Cl40     Cl       0.14480    0.93730    0.47400    1.000
    Cl41     Cl       0.20310    0.05640    0.46000    1.000
    Cl42     Cl       0.21710    0.05820    0.40400    1.000
    Cl43     Cl       0.15030    0.93540    0.41800    1.000
    Cl44     Cl       0.20930    0.06550    0.53100    1.000
    Cl45     Cl       0.15970    0.94020    0.59800    1.000
    Cl46     Cl       0.14660    0.94320    0.54700    1.000
    C184     C        0.24650    0.03590    0.52100    1.000
    Cl47     Cl       0.59340    0.07300    0.73880    1.000
    Cl48     Cl       0.37090    0.23530    0.64640    1.000
    Zn9      Zn       0.11861    0.66582    0.80667    1.000
    Zn10     Zn       0.11866    0.45283    0.80671    1.000
    N33      N        0.18447    0.44993    0.83943    1.000
    N34      N        0.13607    0.46923    0.61583    1.000
    N35      N        0.26577    0.45023    0.83953    1.000
    N36      N        0.11297    0.59743    0.84023    1.000
    N37      N        0.13577    0.46903    0.71733    1.000
    N38      N        0.11357    0.51593    0.84043    1.000
    C185     C        0.22167    0.44343    0.80923    1.000
    C186     C        0.10547    0.55433    0.81633    1.000
    C187     C        0.18237    0.51503    0.63663    1.000
    H73      H        0.21097    0.54243    0.61153    1.000
    C188     C        0.10907    0.44243    0.66673    1.000
    C189     C        0.24277    0.43403    0.89863    1.000
    C190     C        0.19197    0.43493    0.89783    1.000
    C191     C        0.15497    0.55443    0.88783    1.000
    H74      H        0.17737    0.54563    0.91333    1.000
    C192     C        0.26267    0.42313    0.95113    1.000
    H75      H        0.29637    0.42173    0.95063    1.000
    C193     C        0.15997    0.42343    0.95123    1.000
    H76      H        0.12467    0.42163    0.95133    1.000
    C194     C        0.18327    0.41433    0.00513    1.000
    C195     C        0.23247    0.41433    0.00563    1.000
    C196     C        0.15467    0.59993    0.88773    1.000
    H77      H        0.17707    0.63113    0.91333    1.000
    C197     C        0.06867    0.53453    0.76153    1.000
    H78      H        0.04307    0.54953    0.76263    1.000
    H79      H        0.04707    0.49363    0.76163    1.000
    H80      H        0.09167    0.54773    0.72453    1.000
    C198     C        0.18207    0.51623    0.69653    1.000
    H81      H        0.20947    0.54523    0.72133    1.000
    C199     C        0.05297    0.38613    0.66683    1.000
    H82      H        0.02277    0.39253    0.65313    1.000
    H83      H        0.04497    0.37073    0.70823    1.000
    H84      H        0.05577    0.35983    0.63913    1.000
    Cl49     Cl       0.14707    0.40693    0.07223    1.000
    N39      N        0.00547    0.71923    0.84013    1.000
    N40      N        0.05287    0.67293    0.82703    1.000
    C200     C        0.05297    0.71953    0.83363    1.000
    H85      H        0.08737    0.75403    0.83373    1.000
    C201     C        0.88767    0.58933    0.77183    1.000
    C202     C        0.91547    0.55913    0.76823    1.000
    C203     C        0.96977    0.58193    0.79043    1.000
    C204     C        0.99627    0.63513    0.81623    1.000
    C205     C        0.96847    0.66533    0.81993    1.000
    C206     C        0.91417    0.64253    0.79763    1.000
    Cl50     Cl       0.81677    0.54743    0.75233    1.000
    Cl51     Cl       0.96157    0.53103    0.02003    1.000
    C207     C        0.07507    0.51223    0.88743    1.000
    C208     C        0.07527    0.56263    0.88673    1.000
    C209     C        0.04137    0.46983    0.93343    1.000
    C210     C        0.19887    0.39703    0.76023    1.000
    H86      H        0.18127    0.36023    0.78013    1.000
    H87      H        0.22967    0.40133    0.73423    1.000
    H88      H        0.17097    0.39993    0.73513    1.000
    C211     C        0.22117    0.48913    0.88483    1.000
    H89      H        0.21227    0.51143    0.91043    1.000
    C212     C        0.26777    0.48903    0.88513    1.000
    H90      H        0.29857    0.51093    0.91123    1.000
    C213     C        0.12267    0.56063    0.80633    1.000
    C214     C        0.03937    0.57053    0.93253    1.000
    C215     C        0.01117    0.48013    0.97113    1.000
    C216     C        0.96617    0.38903    0.80843    1.000
    C217     C        0.99617    0.36133    0.81683    1.000
    C218     C        0.96817    0.30343    0.82213    1.000
    C219     C        0.91007    0.27313    0.81923    1.000
    C220     C        0.87997    0.30063    0.81083    1.000
    C221     C        0.90807    0.35863    0.80553    1.000
    C222     C        0.00977    0.52893    0.96993    1.000
    C223     C        0.91467    0.27333    0.79533    1.000
    C224     C        0.88247    0.28703    0.76033    1.000
    C225     C        0.97567    0.39133    0.78933    1.000
    C226     C        0.91567    0.35763    0.77133    1.000
    C227     C        0.91067    0.27533    0.85233    1.000
    C228     C        0.88257    0.31223    0.86083    1.000
    C229     C        0.96767    0.39233    0.84333    1.000
    Cl52     Cl       0.81147    0.27063    0.80733    1.000
    Cl53     Cl       0.86977    0.38973    0.79333    1.000
    Cl54     Cl       0.88377    0.39153    0.73733    1.000
    Cl55     Cl       0.81697    0.26873    0.75133    1.000
    Cl56     Cl       0.87597    0.39883    0.86433    1.000
    Cl57     Cl       0.82637    0.27353    0.93133    1.000
    Cl58     Cl       0.81327    0.27653    0.88033    1.000
    C230     C        0.91317    0.36923    0.85433    1.000
    Cl59     Cl       0.26007    0.40633    0.07213    1.000
    Cl60     Cl       0.03757    0.56863    0.97973    1.000
    Zn11     Zn       0.78527    0.99916    0.14001    1.000
    Zn12     Zn       0.78532    0.78617    0.14005    1.000
    N41      N        0.85113    0.78327    0.17277    1.000
    N42      N        0.80273    0.80257    0.94917    1.000
    N43      N        0.93243    0.78357    0.17287    1.000
    N44      N        0.77963    0.93077    0.17357    1.000
    N45      N        0.80243    0.80237    0.05067    1.000
    N46      N        0.78023    0.84927    0.17377    1.000
    C231     C        0.88833    0.77677    0.14257    1.000
    C232     C        0.77213    0.88767    0.14967    1.000
    C233     C        0.84903    0.84837    0.96997    1.000
    H91      H        0.87763    0.87577    0.94487    1.000
    C234     C        0.77573    0.77577    0.00007    1.000
    C235     C        0.90943    0.76737    0.23197    1.000
    C236     C        0.85863    0.76827    0.23117    1.000
    C237     C        0.82163    0.88777    0.22117    1.000
    H92      H        0.84403    0.87897    0.24667    1.000
    C238     C        0.92933    0.75647    0.28447    1.000
    H93      H        0.96303    0.75507    0.28397    1.000
    C239     C        0.82663    0.75677    0.28457    1.000
    H94      H        0.79133    0.75497    0.28467    1.000
    C240     C        0.84993    0.74767    0.33847    1.000
    C241     C        0.89913    0.74767    0.33897    1.000
    C242     C        0.82133    0.93327    0.22107    1.000
    H95      H        0.84373    0.96447    0.24667    1.000
    C243     C        0.73533    0.86787    0.09487    1.000
    H96      H        0.70973    0.88287    0.09597    1.000
    H97      H        0.71373    0.82697    0.09497    1.000
    H98      H        0.75833    0.88107    0.05787    1.000
    C244     C        0.84873    0.84957    0.02987    1.000
    H99      H        0.87613    0.87857    0.05467    1.000
    C245     C        0.71963    0.71947    0.00017    1.000
    H100     H        0.68943    0.72587    0.98647    1.000
    H101     H        0.71163    0.70407    0.04157    1.000
    H102     H        0.72243    0.69317    0.97247    1.000
    Cl61     Cl       0.81373    0.74027    0.40557    1.000
    N47      N        0.67213    0.05257    0.17347    1.000
    N48      N        0.71953    0.00627    0.16037    1.000
    C246     C        0.71963    0.05287    0.16697    1.000
    H103     H        0.75403    0.08737    0.16707    1.000
    C247     C        0.55433    0.92267    0.10517    1.000
    C248     C        0.58213    0.89247    0.10157    1.000
    C249     C        0.63643    0.91527    0.12377    1.000
    C250     C        0.66293    0.96847    0.14957    1.000
    C251     C        0.63513    0.99867    0.15327    1.000
    C252     C        0.58083    0.97587    0.13097    1.000
    Cl62     Cl       0.48343    0.88077    0.08567    1.000
    Cl63     Cl       0.62823    0.86437    0.35337    1.000
    C253     C        0.74173    0.84557    0.22077    1.000
    C254     C        0.74193    0.89597    0.22007    1.000
    C255     C        0.70803    0.80317    0.26677    1.000
    C256     C        0.86553    0.73037    0.09357    1.000
    H104     H        0.84793    0.69357    0.11347    1.000
    H105     H        0.89633    0.73467    0.06757    1.000
    H106     H        0.83763    0.73327    0.06847    1.000
    C257     C        0.88783    0.82247    0.21817    1.000
    H107     H        0.87893    0.84477    0.24377    1.000
    C258     C        0.93443    0.82237    0.21847    1.000
    H108     H        0.96523    0.84427    0.24457    1.000
    C259     C        0.78933    0.89397    0.13967    1.000
    C260     C        0.70603    0.90387    0.26587    1.000
    C261     C        0.67783    0.81347    0.30447    1.000
    C262     C        0.63283    0.72237    0.14177    1.000
    C263     C        0.66283    0.69467    0.15017    1.000
    C264     C        0.63483    0.63677    0.15547    1.000
    C265     C        0.57673    0.60647    0.15257    1.000
    C266     C        0.54663    0.63397    0.14417    1.000
    C267     C        0.57473    0.69197    0.13887    1.000
    C268     C        0.67643    0.86227    0.30327    1.000
    C269     C        0.58133    0.60667    0.12867    1.000
    C270     C        0.54913    0.62037    0.09367    1.000
    C271     C        0.64233    0.72467    0.12267    1.000
    C272     C        0.58233    0.69097    0.10467    1.000
    C273     C        0.57733    0.60867    0.18567    1.000
    C274     C        0.54923    0.64557    0.19417    1.000
    C275     C        0.63433    0.72567    0.17667    1.000
    Cl64     Cl       0.47813    0.60397    0.14067    1.000
    Cl65     Cl       0.53643    0.72307    0.12667    1.000
    Cl66     Cl       0.55043    0.72487    0.07067    1.000
    Cl67     Cl       0.48363    0.60207    0.08467    1.000
    Cl68     Cl       0.54263    0.73217    0.19767    1.000
    Cl69     Cl       0.49303    0.60687    0.26467    1.000
    Cl70     Cl       0.47993    0.60987    0.21367    1.000
    C276     C        0.57983    0.70257    0.18767    1.000
    Cl71     Cl       0.92673    0.73967    0.40547    1.000
    Cl72     Cl       0.70423    0.90197    0.31307    1.000
    Zn13     Zn       0.66751    0.11945    0.47334    1.000
    Zn14     Zn       0.88050    0.33249    0.47338    1.000
    N49      N        0.88340    0.40120    0.50610    1.000
    N50      N        0.86410    0.33350    0.28250    1.000
    N51      N        0.88310    0.48220    0.50620    1.000
    N52      N        0.73590    0.18220    0.50690    1.000
    N53      N        0.86430    0.33340    0.38400    1.000
    N54      N        0.81740    0.26430    0.50710    1.000
    C277     C        0.88990    0.44490    0.47590    1.000
    C278     C        0.77900    0.21780    0.48300    1.000
    C279     C        0.81830    0.33400    0.30330    1.000
    H109     H        0.79090    0.33520    0.27820    1.000
    C280     C        0.89090    0.33330    0.33340    1.000
    C281     C        0.89930    0.47540    0.56530    1.000
    C282     C        0.89840    0.42370    0.56450    1.000
    C283     C        0.77890    0.26720    0.55450    1.000
    H110     H        0.78770    0.29840    0.58000    1.000
    C284     C        0.91020    0.50620    0.61780    1.000
    H111     H        0.91160    0.54130    0.61730    1.000
    C285     C        0.90990    0.40320    0.61790    1.000
    H112     H        0.91170    0.36970    0.61800    1.000
    C286     C        0.91900    0.43560    0.67180    1.000
    C287     C        0.91900    0.48480    0.67230    1.000
    C288     C        0.73340    0.22140    0.55440    1.000
    H113     H        0.70220    0.21260    0.58000    1.000
    C289     C        0.79880    0.20080    0.42820    1.000
    H114     H        0.78380    0.16020    0.42930    1.000
    H115     H        0.83970    0.22010    0.42830    1.000
    H116     H        0.78560    0.21060    0.39120    1.000
    C290     C        0.81710    0.33250    0.36320    1.000
    H117     H        0.78810    0.33090    0.38800    1.000
    C291     C        0.94720    0.33350    0.33350    1.000
    H118     H        0.94080    0.29690    0.31980    1.000
    H119     H        0.96260    0.34090    0.37490    1.000
    H120     H        0.97350    0.36260    0.30580    1.000
    Cl73     Cl       0.92640    0.40680    0.73890    1.000
    N55      N        0.61410    0.95290    0.50680    1.000
    N56      N        0.66040    0.04660    0.49370    1.000
    C292     C        0.61380    0.00010    0.50030    1.000
    H121     H        0.57930    0.00000    0.50040    1.000
    C293     C        0.74400    0.96500    0.43850    1.000
    C294     C        0.77420    0.02300    0.43490    1.000
    C295     C        0.75140    0.05450    0.45710    1.000
    C296     C        0.69820    0.02780    0.48290    1.000
    C297     C        0.66800    0.96980    0.48660    1.000
    C298     C        0.69080    0.93830    0.46430    1.000
    Cl74     Cl       0.78590    0.93600    0.41900    1.000
    Cl75     Cl       0.80230    0.09720    0.68670    1.000
    C299     C        0.82110    0.22950    0.55410    1.000
    C300     C        0.77070    0.17930    0.55340    1.000
    C301     C        0.86350    0.23820    0.60010    1.000
    C302     C        0.93630    0.46850    0.42690    1.000
    H122     H        0.97310    0.48770    0.44680    1.000
    H123     H        0.93200    0.49500    0.40090    1.000
    H124     H        0.93340    0.43770    0.40180    1.000
    C303     C        0.84420    0.39870    0.55150    1.000
    H125     H        0.82190    0.36750    0.57710    1.000
    C304     C        0.84430    0.44540    0.55180    1.000
    H126     H        0.82240    0.45430    0.57790    1.000
    C305     C        0.77270    0.22870    0.47300    1.000
    C306     C        0.76280    0.13550    0.59920    1.000
    C307     C        0.85320    0.19770    0.63780    1.000
    C308     C        0.94430    0.24380    0.47510    1.000
    C309     C        0.97200    0.30150    0.48350    1.000
    C310     C        0.02990    0.33140    0.48880    1.000
    C311     C        0.06020    0.30360    0.48590    1.000
    C312     C        0.03270    0.24600    0.47750    1.000
    C313     C        0.97470    0.21610    0.47220    1.000
    C314     C        0.80440    0.14750    0.63660    1.000
    C315     C        0.06000    0.30800    0.46200    1.000
    C316     C        0.04630    0.26210    0.42700    1.000
    C317     C        0.94200    0.25100    0.45600    1.000
    C318     C        0.97570    0.22470    0.43800    1.000
    C319     C        0.05800    0.30200    0.51900    1.000
    C320     C        0.02110    0.23700    0.52750    1.000
    C321     C        0.94100    0.24200    0.51000    1.000
    Cl76     Cl       0.06270    0.20750    0.47400    1.000
    Cl77     Cl       0.94360    0.14670    0.46000    1.000
    Cl78     Cl       0.94180    0.15890    0.40400    1.000
    Cl79     Cl       0.06460    0.21490    0.41800    1.000
    Cl80     Cl       0.93450    0.14380    0.53100    1.000
    Cl81     Cl       0.05980    0.21950    0.59800    1.000
    Cl82     Cl       0.05680    0.20340    0.54700    1.000
    C322     C        0.96410    0.21060    0.52100    1.000
    Cl83     Cl       0.92700    0.52040    0.73880    1.000
    Cl84     Cl       0.76470    0.13560    0.64640    1.000
    Zn15     Zn       0.33418    0.45278    0.80667    1.000
    Zn16     Zn       0.54717    0.66582    0.80671    1.000
    N57      N        0.55007    0.73453    0.83943    1.000
    N58      N        0.53077    0.66683    0.61583    1.000
    N59      N        0.54977    0.81553    0.83953    1.000
    N60      N        0.40257    0.51553    0.84023    1.000
    N61      N        0.53097    0.66673    0.71733    1.000
    N62      N        0.48407    0.59763    0.84043    1.000
    C323     C        0.55657    0.77823    0.80923    1.000
    C324     C        0.44567    0.55113    0.81633    1.000
    C325     C        0.48497    0.66733    0.63663    1.000
    H127     H        0.45757    0.66853    0.61153    1.000
    C326     C        0.55757    0.66663    0.66673    1.000
    C327     C        0.56597    0.80873    0.89863    1.000
    C328     C        0.56507    0.75703    0.89783    1.000
    C329     C        0.44557    0.60053    0.88783    1.000
    H128     H        0.45437    0.63173    0.91333    1.000
    C330     C        0.57687    0.83953    0.95113    1.000
    H129     H        0.57827    0.87463    0.95063    1.000
    C331     C        0.57657    0.73653    0.95123    1.000
    H130     H        0.57837    0.70303    0.95133    1.000
    C332     C        0.58567    0.76893    0.00513    1.000
    C333     C        0.58567    0.81813    0.00563    1.000
    C334     C        0.40007    0.55473    0.88773    1.000
    H131     H        0.36887    0.54593    0.91333    1.000
    C335     C        0.46547    0.53413    0.76153    1.000
    H132     H        0.45047    0.49353    0.76263    1.000
    H133     H        0.50637    0.55343    0.76163    1.000
    H134     H        0.45227    0.54393    0.72453    1.000
    C336     C        0.48377    0.66583    0.69653    1.000
    H135     H        0.45477    0.66423    0.72133    1.000
    C337     C        0.61387    0.66683    0.66683    1.000
    H136     H        0.60747    0.63023    0.65313    1.000
    H137     H        0.62927    0.67423    0.70823    1.000
    H138     H        0.64017    0.69593    0.63913    1.000
    Cl85     Cl       0.59307    0.74013    0.07223    1.000
    N63      N        0.28077    0.28623    0.84013    1.000
    N64      N        0.32707    0.37993    0.82703    1.000
    C338     C        0.28047    0.33343    0.83363    1.000
    H139     H        0.24597    0.33333    0.83373    1.000
    C339     C        0.41067    0.29833    0.77183    1.000
    C340     C        0.44087    0.35633    0.76823    1.000
    C341     C        0.41807    0.38783    0.79043    1.000
    C342     C        0.36487    0.36113    0.81623    1.000
    C343     C        0.33467    0.30313    0.81993    1.000
    C344     C        0.35747    0.27163    0.79763    1.000
    Cl86     Cl       0.45257    0.26933    0.75233    1.000
    Cl87     Cl       0.46897    0.43053    0.02003    1.000
    C345     C        0.48777    0.56283    0.88743    1.000
    C346     C        0.43737    0.51263    0.88673    1.000
    C347     C        0.53017    0.57153    0.93343    1.000
    C348     C        0.60297    0.80183    0.76023    1.000
    H140     H        0.63977    0.82103    0.78013    1.000
    H141     H        0.59867    0.82833    0.73423    1.000
    H142     H        0.60007    0.77103    0.73513    1.000
    C349     C        0.51087    0.73203    0.88483    1.000
    H143     H        0.48857    0.70083    0.91043    1.000
    C350     C        0.51097    0.77873    0.88513    1.000
    H144     H        0.48907    0.78763    0.91123    1.000
    C351     C        0.43937    0.56203    0.80633    1.000
    C352     C        0.42947    0.46883    0.93253    1.000
    C353     C        0.51987    0.53103    0.97113    1.000
    C354     C        0.61097    0.57713    0.80843    1.000
    C355     C        0.63867    0.63483    0.81683    1.000
    C356     C        0.69657    0.66473    0.82213    1.000
    C357     C        0.72687    0.63693    0.81923    1.000
    C358     C        0.69937    0.57933    0.81083    1.000
    C359     C        0.64137    0.54943    0.80553    1.000
    C360     C        0.47107    0.48083    0.96993    1.000
    C361     C        0.72667    0.64133    0.79533    1.000
    C362     C        0.71297    0.59543    0.76033    1.000
    C363     C        0.60867    0.58433    0.78933    1.000
    C364     C        0.64237    0.55803    0.77133    1.000
    C365     C        0.72467    0.63533    0.85233    1.000
    C366     C        0.68777    0.57033    0.86083    1.000
    C367     C        0.60767    0.57533    0.84333    1.000
    Cl88     Cl       0.72937    0.54083    0.80733    1.000
    Cl89     Cl       0.61027    0.48003    0.79333    1.000
    Cl90     Cl       0.60847    0.49223    0.73733    1.000
    Cl91     Cl       0.73127    0.54823    0.75133    1.000
    Cl92     Cl       0.60117    0.47713    0.86433    1.000
    Cl93     Cl       0.72647    0.55283    0.93133    1.000
    Cl94     Cl       0.72347    0.53673    0.88033    1.000
    C368     C        0.63077    0.54393    0.85433    1.000
    Cl95     Cl       0.59367    0.85373    0.07213    1.000
    Cl96     Cl       0.43137    0.46893    0.97973    1.000
    Zn17     Zn       0.00084    0.78612    0.14001    1.000
    Zn18     Zn       0.21383    0.99916    0.14005    1.000
    N65      N        0.21673    0.06787    0.17277    1.000
    N66      N        0.19743    0.00017    0.94917    1.000
    N67      N        0.21643    0.14887    0.17287    1.000
    N68      N        0.06923    0.84887    0.17357    1.000
    N69      N        0.19763    0.00007    0.05067    1.000
    N70      N        0.15073    0.93097    0.17377    1.000
    C369     C        0.22323    0.11157    0.14257    1.000
    C370     C        0.11233    0.88447    0.14967    1.000
    C371     C        0.15163    0.00067    0.96997    1.000
    H145     H        0.12423    0.00187    0.94487    1.000
    C372     C        0.22423    0.99997    0.00007    1.000
    C373     C        0.23263    0.14207    0.23197    1.000
    C374     C        0.23173    0.09037    0.23117    1.000
    C375     C        0.11223    0.93387    0.22117    1.000
    H146     H        0.12103    0.96507    0.24667    1.000
    C376     C        0.24353    0.17287    0.28447    1.000
    H147     H        0.24493    0.20797    0.28397    1.000
    C377     C        0.24323    0.06987    0.28457    1.000
    H148     H        0.24503    0.03637    0.28467    1.000
    C378     C        0.25233    0.10227    0.33847    1.000
    C379     C        0.25233    0.15147    0.33897    1.000
    C380     C        0.06673    0.88807    0.22107    1.000
    H149     H        0.03553    0.87927    0.24667    1.000
    C381     C        0.13213    0.86747    0.09487    1.000
    H150     H        0.11713    0.82687    0.09597    1.000
    H151     H        0.17303    0.88677    0.09497    1.000
    H152     H        0.11893    0.87727    0.05787    1.000
    C382     C        0.15043    0.99917    0.02987    1.000
    H153     H        0.12143    0.99757    0.05467    1.000
    C383     C        0.28053    0.00017    0.00017    1.000
    H154     H        0.27413    0.96357    0.98647    1.000
    H155     H        0.29593    0.00757    0.04157    1.000
    H156     H        0.30683    0.02927    0.97247    1.000
    Cl97     Cl       0.25973    0.07347    0.40557    1.000
    N71      N        0.94743    0.61957    0.17347    1.000
    N72      N        0.99373    0.71327    0.16037    1.000
    C384     C        0.94713    0.66677    0.16697    1.000
    H157     H        0.91263    0.66667    0.16707    1.000
    C385     C        0.07733    0.63167    0.10517    1.000
    C386     C        0.10753    0.68967    0.10157    1.000
    C387     C        0.08473    0.72117    0.12377    1.000
    C388     C        0.03153    0.69447    0.14957    1.000
    C389     C        0.00133    0.63647    0.15327    1.000
    C390     C        0.02413    0.60497    0.13097    1.000
    Cl98     Cl       0.11923    0.60267    0.08567    1.000
    Cl99     Cl       0.13563    0.76387    0.35337    1.000
    C391     C        0.15443    0.89617    0.22077    1.000
    C392     C        0.10403    0.84597    0.22007    1.000
    C393     C        0.19683    0.90487    0.26677    1.000
    C394     C        0.26963    0.13517    0.09357    1.000
    H158     H        0.30643    0.15437    0.11347    1.000
    H159     H        0.26533    0.16167    0.06757    1.000
    H160     H        0.26673    0.10437    0.06847    1.000
    C395     C        0.17753    0.06537    0.21817    1.000
    H161     H        0.15523    0.03417    0.24377    1.000
    C396     C        0.17763    0.11207    0.21847    1.000
    H162     H        0.15573    0.12097    0.24457    1.000
    C397     C        0.10603    0.89537    0.13967    1.000
    C398     C        0.09613    0.80217    0.26587    1.000
    C399     C        0.18653    0.86437    0.30447    1.000
    C400     C        0.27763    0.91047    0.14177    1.000
    C401     C        0.30533    0.96817    0.15017    1.000
    C402     C        0.36323    0.99807    0.15547    1.000
    C403     C        0.39353    0.97027    0.15257    1.000
    C404     C        0.36603    0.91267    0.14417    1.000
    C405     C        0.30803    0.88277    0.13887    1.000
    C406     C        0.13773    0.81417    0.30327    1.000
    C407     C        0.39333    0.97467    0.12867    1.000
    C408     C        0.37963    0.92877    0.09367    1.000
    C409     C        0.27533    0.91767    0.12267    1.000
    C410     C        0.30903    0.89137    0.10467    1.000
    C411     C        0.39133    0.96867    0.18567    1.000
    C412     C        0.35443    0.90367    0.19417    1.000
    C413     C        0.27433    0.90867    0.17667    1.000
    Cl100    Cl       0.39603    0.87417    0.14067    1.000
    Cl101    Cl       0.27693    0.81337    0.12667    1.000
    Cl102    Cl       0.27513    0.82557    0.07067    1.000
    Cl103    Cl       0.39793    0.88157    0.08467    1.000
    Cl104    Cl       0.26783    0.81047    0.19767    1.000
    Cl105    Cl       0.39313    0.88617    0.26467    1.000
    Cl106    Cl       0.39013    0.87007    0.21367    1.000
    C414     C        0.29743    0.87727    0.18767    1.000
    Cl107    Cl       0.26033    0.18707    0.40547    1.000
    Cl108    Cl       0.09803    0.80227    0.31307    1.000
    Zn19     Zn       0.11945    0.45194    0.52666    1.000
    Zn20     Zn       0.33249    0.45199    0.52662    1.000
    N73      N        0.40120    0.51780    0.49390    1.000
    N74      N        0.33350    0.46940    0.71750    1.000
    N75      N        0.48220    0.59910    0.49380    1.000
    N76      N        0.18220    0.44630    0.49310    1.000
    N77      N        0.33340    0.46910    0.61600    1.000
    N78      N        0.26430    0.44690    0.49290    1.000
    C415     C        0.44490    0.55500    0.52410    1.000
    C416     C        0.21780    0.43880    0.51700    1.000
    C417     C        0.33400    0.51570    0.69670    1.000
    H163     H        0.33520    0.54430    0.72180    1.000
    C418     C        0.33330    0.44240    0.66660    1.000
    C419     C        0.47540    0.57610    0.43470    1.000
    C420     C        0.42370    0.52530    0.43550    1.000
    C421     C        0.26720    0.48830    0.44550    1.000
    H164     H        0.29840    0.51070    0.42000    1.000
    C422     C        0.50620    0.59600    0.38220    1.000
    H165     H        0.54130    0.62970    0.38270    1.000
    C423     C        0.40320    0.49330    0.38210    1.000
    H166     H        0.36970    0.45800    0.38200    1.000
    C424     C        0.43560    0.51660    0.32820    1.000
    C425     C        0.48480    0.56580    0.32770    1.000
    C426     C        0.22140    0.48800    0.44560    1.000
    H167     H        0.21260    0.51040    0.42000    1.000
    C427     C        0.20080    0.40200    0.57180    1.000
    H168     H        0.16020    0.37640    0.57070    1.000
    H169     H        0.22010    0.38040    0.57170    1.000
    H170     H        0.21060    0.42500    0.60880    1.000
    C428     C        0.33250    0.51540    0.63680    1.000
    H171     H        0.33090    0.54280    0.61200    1.000
    C429     C        0.33350    0.38630    0.66650    1.000
    H172     H        0.29690    0.35610    0.68020    1.000
    H173     H        0.34090    0.37830    0.62510    1.000
    H174     H        0.36260    0.38910    0.69420    1.000
    Cl109    Cl       0.40680    0.48040    0.26110    1.000
    N79      N        0.95290    0.33880    0.49320    1.000
    N80      N        0.04660    0.38620    0.50630    1.000
    C430     C        0.00010    0.38630    0.49970    1.000
    H175     H        0.00000    0.42070    0.49960    1.000
    C431     C        0.96500    0.22100    0.56150    1.000
    C432     C        0.02300    0.24880    0.56510    1.000
    C433     C        0.05450    0.30310    0.54290    1.000
    C434     C        0.02780    0.32960    0.51710    1.000
    C435     C        0.96980    0.30180    0.51340    1.000
    C436     C        0.93830    0.24750    0.53570    1.000
    Cl110    Cl       0.93600    0.15010    0.58100    1.000
    Cl111    Cl       0.09720    0.29490    0.31330    1.000
    C437     C        0.22950    0.40840    0.44590    1.000
    C438     C        0.17930    0.40860    0.44660    1.000
    C439     C        0.23820    0.37470    0.39990    1.000
    C440     C        0.46850    0.53220    0.57310    1.000
    H176     H        0.48770    0.51460    0.55320    1.000
    H177     H        0.49500    0.56300    0.59910    1.000
    H178     H        0.43770    0.50430    0.59820    1.000
    C441     C        0.39870    0.55450    0.44850    1.000
    H179     H        0.36750    0.54560    0.42290    1.000
    C442     C        0.44540    0.60110    0.44820    1.000
    H180     H        0.45430    0.63190    0.42210    1.000
    C443     C        0.22870    0.45600    0.52700    1.000
    C444     C        0.13550    0.37270    0.40080    1.000
    C445     C        0.19770    0.34450    0.36220    1.000
    C446     C        0.24380    0.29950    0.52490    1.000
    C447     C        0.30150    0.32950    0.51650    1.000
    C448     C        0.33140    0.30150    0.51120    1.000
    C449     C        0.30360    0.24340    0.51410    1.000
    C450     C        0.24600    0.21330    0.52250    1.000
    C451     C        0.21610    0.24140    0.52780    1.000
    C452     C        0.14750    0.34310    0.36340    1.000
    C453     C        0.30800    0.24800    0.53800    1.000
    C454     C        0.26210    0.21580    0.57300    1.000
    C455     C        0.25100    0.30900    0.54400    1.000
    C456     C        0.22470    0.24900    0.56200    1.000
    C457     C        0.30200    0.24400    0.48100    1.000
    C458     C        0.23700    0.21590    0.47250    1.000
    C459     C        0.24200    0.30100    0.49000    1.000
    Cl112    Cl       0.20750    0.14480    0.52600    1.000
    Cl113    Cl       0.14670    0.20310    0.54000    1.000
    Cl114    Cl       0.15890    0.21710    0.59600    1.000
    Cl115    Cl       0.21490    0.15030    0.58200    1.000
    Cl116    Cl       0.14380    0.20930    0.46900    1.000
    Cl117    Cl       0.21950    0.15970    0.40200    1.000
    Cl118    Cl       0.20340    0.14660    0.45300    1.000
    C460     C        0.21060    0.24650    0.47900    1.000
    Cl119    Cl       0.52040    0.59340    0.26120    1.000
    Cl120    Cl       0.13560    0.37090    0.35360    1.000
    Zn21     Zn       0.78612    0.78527    0.85999    1.000
    Zn22     Zn       0.99916    0.78532    0.85995    1.000
    N81      N        0.06787    0.85113    0.82723    1.000
    N82      N        0.00017    0.80273    0.05083    1.000
    N83      N        0.14887    0.93243    0.82713    1.000
    N84      N        0.84887    0.77963    0.82643    1.000
    N85      N        0.00007    0.80243    0.94933    1.000
    N86      N        0.93097    0.78023    0.82623    1.000
    C461     C        0.11157    0.88833    0.85743    1.000
    C462     C        0.88447    0.77213    0.85033    1.000
    C463     C        0.00067    0.84903    0.03003    1.000
    H181     H        0.00187    0.87763    0.05513    1.000
    C464     C        0.99997    0.77573    0.99993    1.000
    C465     C        0.14207    0.90943    0.76803    1.000
    C466     C        0.09037    0.85863    0.76883    1.000
    C467     C        0.93387    0.82163    0.77883    1.000
    H182     H        0.96507    0.84403    0.75333    1.000
    C468     C        0.17287    0.92933    0.71553    1.000
    H183     H        0.20797    0.96303    0.71603    1.000
    C469     C        0.06987    0.82663    0.71543    1.000
    H184     H        0.03637    0.79133    0.71533    1.000
    C470     C        0.10227    0.84993    0.66153    1.000
    C471     C        0.15147    0.89913    0.66103    1.000
    C472     C        0.88807    0.82133    0.77893    1.000
    H185     H        0.87927    0.84373    0.75333    1.000
    C473     C        0.86747    0.73533    0.90513    1.000
    H186     H        0.82687    0.70973    0.90403    1.000
    H187     H        0.88677    0.71373    0.90503    1.000
    H188     H        0.87727    0.75833    0.94213    1.000
    C474     C        0.99917    0.84873    0.97013    1.000
    H189     H        0.99757    0.87613    0.94533    1.000
    C475     C        0.00017    0.71963    0.99983    1.000
    H190     H        0.96357    0.68943    0.01353    1.000
    H191     H        0.00757    0.71163    0.95843    1.000
    H192     H        0.02927    0.72243    0.02753    1.000
    Cl121    Cl       0.07347    0.81373    0.59443    1.000
    N87      N        0.61957    0.67213    0.82653    1.000
    N88      N        0.71327    0.71953    0.83963    1.000
    C476     C        0.66677    0.71963    0.83303    1.000
    H193     H        0.66667    0.75403    0.83293    1.000
    C477     C        0.63167    0.55433    0.89483    1.000
    C478     C        0.68967    0.58213    0.89843    1.000
    C479     C        0.72117    0.63643    0.87623    1.000
    C480     C        0.69447    0.66293    0.85043    1.000
    C481     C        0.63647    0.63513    0.84673    1.000
    C482     C        0.60497    0.58083    0.86903    1.000
    Cl122    Cl       0.60267    0.48343    0.91433    1.000
    Cl123    Cl       0.76387    0.62823    0.64663    1.000
    C483     C        0.89617    0.74173    0.77923    1.000
    C484     C        0.84597    0.74193    0.77993    1.000
    C485     C        0.90487    0.70803    0.73323    1.000
    C486     C        0.13517    0.86553    0.90643    1.000
    H194     H        0.15437    0.84793    0.88653    1.000
    H195     H        0.16167    0.89633    0.93243    1.000
    H196     H        0.10437    0.83763    0.93153    1.000
    C487     C        0.06537    0.88783    0.78183    1.000
    H197     H        0.03417    0.87893    0.75623    1.000
    C488     C        0.11207    0.93443    0.78153    1.000
    H198     H        0.12097    0.96523    0.75543    1.000
    C489     C        0.89537    0.78933    0.86033    1.000
    C490     C        0.80217    0.70603    0.73413    1.000
    C491     C        0.86437    0.67783    0.69553    1.000
    C492     C        0.91047    0.63283    0.85823    1.000
    C493     C        0.96817    0.66283    0.84983    1.000
    C494     C        0.99807    0.63483    0.84453    1.000
    C495     C        0.97027    0.57673    0.84743    1.000
    C496     C        0.91267    0.54663    0.85583    1.000
    C497     C        0.88277    0.57473    0.86113    1.000
    C498     C        0.81417    0.67643    0.69673    1.000
    C499     C        0.97467    0.58133    0.87133    1.000
    C500     C        0.92877    0.54913    0.90633    1.000
    C501     C        0.91767    0.64233    0.87733    1.000
    C502     C        0.89137    0.58233    0.89533    1.000
    C503     C        0.96867    0.57733    0.81433    1.000
    C504     C        0.90367    0.54923    0.80583    1.000
    C505     C        0.90867    0.63433    0.82333    1.000
    Cl124    Cl       0.87417    0.47813    0.85933    1.000
    Cl125    Cl       0.81337    0.53643    0.87333    1.000
    Cl126    Cl       0.82557    0.55043    0.92933    1.000
    Cl127    Cl       0.88157    0.48363    0.91533    1.000
    Cl128    Cl       0.81047    0.54263    0.80233    1.000
    Cl129    Cl       0.88617    0.49303    0.73533    1.000
    Cl130    Cl       0.87007    0.47993    0.78633    1.000
    C506     C        0.87727    0.57983    0.81233    1.000
    Cl131    Cl       0.18707    0.92673    0.59453    1.000
    Cl132    Cl       0.80227    0.70423    0.68693    1.000
    Zn23     Zn       0.45278    0.11861    0.19333    1.000
    Zn24     Zn       0.66582    0.11866    0.19329    1.000
    N89      N        0.73453    0.18447    0.16057    1.000
    N90      N        0.66683    0.13607    0.38417    1.000
    N91      N        0.81553    0.26577    0.16047    1.000
    N92      N        0.51553    0.11297    0.15977    1.000
    N93      N        0.66673    0.13577    0.28267    1.000
    N94      N        0.59763    0.11357    0.15957    1.000
    C507     C        0.77823    0.22167    0.19077    1.000
    C508     C        0.55113    0.10547    0.18367    1.000
    C509     C        0.66733    0.18237    0.36337    1.000
    H199     H        0.66853    0.21097    0.38847    1.000
    C510     C        0.66663    0.10907    0.33327    1.000
    C511     C        0.80873    0.24277    0.10137    1.000
    C512     C        0.75703    0.19197    0.10217    1.000
    C513     C        0.60053    0.15497    0.11217    1.000
    H200     H        0.63173    0.17737    0.08667    1.000
    C514     C        0.83953    0.26267    0.04887    1.000
    H201     H        0.87463    0.29637    0.04937    1.000
    C515     C        0.73653    0.15997    0.04877    1.000
    H202     H        0.70303    0.12467    0.04867    1.000
    C516     C        0.76893    0.18327    0.99487    1.000
    C517     C        0.81813    0.23247    0.99437    1.000
    C518     C        0.55473    0.15467    0.11227    1.000
    H203     H        0.54593    0.17707    0.08667    1.000
    C519     C        0.53413    0.06867    0.23847    1.000
    H204     H        0.49353    0.04307    0.23737    1.000
    H205     H        0.55343    0.04707    0.23837    1.000
    H206     H        0.54393    0.09167    0.27547    1.000
    C520     C        0.66583    0.18207    0.30347    1.000
    H207     H        0.66423    0.20947    0.27867    1.000
    C521     C        0.66683    0.05297    0.33317    1.000
    H208     H        0.63023    0.02277    0.34687    1.000
    H209     H        0.67423    0.04497    0.29177    1.000
    H210     H        0.69593    0.05577    0.36087    1.000
    Cl133    Cl       0.74013    0.14707    0.92777    1.000
    N95      N        0.28623    0.00547    0.15987    1.000
    N96      N        0.37993    0.05287    0.17297    1.000
    C522     C        0.33343    0.05297    0.16637    1.000
    H211     H        0.33333    0.08737    0.16627    1.000
    C523     C        0.29833    0.88767    0.22817    1.000
    C524     C        0.35633    0.91547    0.23177    1.000
    C525     C        0.38783    0.96977    0.20957    1.000
    C526     C        0.36113    0.99627    0.18377    1.000
    C527     C        0.30313    0.96847    0.18007    1.000
    C528     C        0.27163    0.91417    0.20237    1.000
    Cl134    Cl       0.26933    0.81677    0.24767    1.000
    Cl135    Cl       0.43053    0.96157    0.97997    1.000
    C529     C        0.56283    0.07507    0.11257    1.000
    C530     C        0.51263    0.07527    0.11327    1.000
    C531     C        0.57153    0.04137    0.06657    1.000
    C532     C        0.80183    0.19887    0.23977    1.000
    H212     H        0.82103    0.18127    0.21987    1.000
    H213     H        0.82833    0.22967    0.26577    1.000
    H214     H        0.77103    0.17097    0.26487    1.000
    C533     C        0.73203    0.22117    0.11517    1.000
    H215     H        0.70083    0.21227    0.08957    1.000
    C534     C        0.77873    0.26777    0.11487    1.000
    H216     H        0.78763    0.29857    0.08877    1.000
    C535     C        0.56203    0.12267    0.19367    1.000
    C536     C        0.46883    0.03937    0.06747    1.000
    C537     C        0.53103    0.01117    0.02887    1.000
    C538     C        0.57713    0.96617    0.19157    1.000
    C539     C        0.63483    0.99617    0.18317    1.000
    C540     C        0.66473    0.96817    0.17787    1.000
    C541     C        0.63693    0.91007    0.18077    1.000
    C542     C        0.57933    0.87997    0.18917    1.000
    C543     C        0.54943    0.90807    0.19447    1.000
    C544     C        0.48083    0.00977    0.03007    1.000
    C545     C        0.64133    0.91467    0.20467    1.000
    C546     C        0.59543    0.88247    0.23967    1.000
    C547     C        0.58433    0.97567    0.21067    1.000
    C548     C        0.55803    0.91567    0.22867    1.000
    C549     C        0.63533    0.91067    0.14767    1.000
    C550     C        0.57033    0.88257    0.13917    1.000
    C551     C        0.57533    0.96767    0.15667    1.000
    Cl136    Cl       0.54083    0.81147    0.19267    1.000
    Cl137    Cl       0.48003    0.86977    0.20667    1.000
    Cl138    Cl       0.49223    0.88377    0.26267    1.000
    Cl139    Cl       0.54823    0.81697    0.24867    1.000
    Cl140    Cl       0.47713    0.87597    0.13567    1.000
    Cl141    Cl       0.55283    0.82637    0.06867    1.000
    Cl142    Cl       0.53673    0.81327    0.11967    1.000
    C552     C        0.54393    0.91317    0.14567    1.000
    Cl143    Cl       0.85373    0.26007    0.92787    1.000
    Cl144    Cl       0.46893    0.03757    0.02027    1.000
    Zn25     Zn       0.54806    0.66751    0.52666    1.000
    Zn26     Zn       0.54801    0.88050    0.52662    1.000
    N97      N        0.48220    0.88340    0.49390    1.000
    N98      N        0.53060    0.86410    0.71750    1.000
    N99      N        0.40090    0.88310    0.49380    1.000
    N100     N        0.55370    0.73590    0.49310    1.000
    N101     N        0.53090    0.86430    0.61600    1.000
    N102     N        0.55310    0.81740    0.49290    1.000
    C553     C        0.44500    0.88990    0.52410    1.000
    C554     C        0.56120    0.77900    0.51700    1.000
    C555     C        0.48430    0.81830    0.69670    1.000
    H217     H        0.45570    0.79090    0.72180    1.000
    C556     C        0.55760    0.89090    0.66660    1.000
    C557     C        0.42390    0.89930    0.43470    1.000
    C558     C        0.47470    0.89840    0.43550    1.000
    C559     C        0.51170    0.77890    0.44550    1.000
    H218     H        0.48930    0.78770    0.42000    1.000
    C560     C        0.40400    0.91020    0.38220    1.000
    H219     H        0.37030    0.91160    0.38270    1.000
    C561     C        0.50670    0.90990    0.38210    1.000
    H220     H        0.54200    0.91170    0.38200    1.000
    C562     C        0.48340    0.91900    0.32820    1.000
    C563     C        0.43420    0.91900    0.32770    1.000
    C564     C        0.51200    0.73340    0.44560    1.000
    H221     H        0.48960    0.70220    0.42000    1.000
    C565     C        0.59800    0.79880    0.57180    1.000
    H222     H        0.62360    0.78380    0.57070    1.000
    H223     H        0.61960    0.83970    0.57170    1.000
    H224     H        0.57500    0.78560    0.60880    1.000
    C566     C        0.48460    0.81710    0.63680    1.000
    H225     H        0.45720    0.78810    0.61200    1.000
    C567     C        0.61370    0.94720    0.66650    1.000
    H226     H        0.64390    0.94080    0.68020    1.000
    H227     H        0.62170    0.96260    0.62510    1.000
    H228     H        0.61090    0.97350    0.69420    1.000
    Cl145    Cl       0.51960    0.92640    0.26110    1.000
    N103     N        0.66120    0.61410    0.49320    1.000
    N104     N        0.61380    0.66040    0.50630    1.000
    C568     C        0.61370    0.61380    0.49970    1.000
    H229     H        0.57930    0.57930    0.49960    1.000
    C569     C        0.77900    0.74400    0.56150    1.000
    C570     C        0.75120    0.77420    0.56510    1.000
    C571     C        0.69690    0.75140    0.54290    1.000
    C572     C        0.67040    0.69820    0.51710    1.000
    C573     C        0.69820    0.66800    0.51340    1.000
    C574     C        0.75250    0.69080    0.53570    1.000
    Cl146    Cl       0.84990    0.78590    0.58100    1.000
    Cl147    Cl       0.70510    0.80230    0.31330    1.000
    C575     C        0.59160    0.82110    0.44590    1.000
    C576     C        0.59140    0.77070    0.44660    1.000
    C577     C        0.62530    0.86350    0.39990    1.000
    C578     C        0.46780    0.93630    0.57310    1.000
    H230     H        0.48540    0.97310    0.55320    1.000
    H231     H        0.43700    0.93200    0.59910    1.000
    H232     H        0.49570    0.93340    0.59820    1.000
    C579     C        0.44550    0.84420    0.44850    1.000
    H233     H        0.45440    0.82190    0.42290    1.000
    C580     C        0.39890    0.84430    0.44820    1.000
    H234     H        0.36810    0.82240    0.42210    1.000
    C581     C        0.54400    0.77270    0.52700    1.000
    C582     C        0.62730    0.76280    0.40080    1.000
    C583     C        0.65550    0.85320    0.36220    1.000
    C584     C        0.70050    0.94430    0.52490    1.000
    C585     C        0.67050    0.97200    0.51650    1.000
    C586     C        0.69850    0.02990    0.51120    1.000
    C587     C        0.75660    0.06020    0.51410    1.000
    C588     C        0.78670    0.03270    0.52250    1.000
    C589     C        0.75860    0.97470    0.52780    1.000
    C590     C        0.65690    0.80440    0.36340    1.000
    C591     C        0.75200    0.06000    0.53800    1.000
    C592     C        0.78420    0.04630    0.57300    1.000
    C593     C        0.69100    0.94200    0.54400    1.000
    C594     C        0.75100    0.97570    0.56200    1.000
    C595     C        0.75600    0.05800    0.48100    1.000
    C596     C        0.78410    0.02110    0.47250    1.000
    C597     C        0.69900    0.94100    0.49000    1.000
    Cl148    Cl       0.85520    0.06270    0.52600    1.000
    Cl149    Cl       0.79690    0.94360    0.54000    1.000
    Cl150    Cl       0.78290    0.94180    0.59600    1.000
    Cl151    Cl       0.84970    0.06460    0.58200    1.000
    Cl152    Cl       0.79070    0.93450    0.46900    1.000
    Cl153    Cl       0.84030    0.05980    0.40200    1.000
    Cl154    Cl       0.85340    0.05680    0.45300    1.000
    C598     C        0.75350    0.96410    0.47900    1.000
    Cl155    Cl       0.40660    0.92700    0.26120    1.000
    Cl156    Cl       0.62910    0.76470    0.35360    1.000
    Zn27     Zn       0.21473    0.00084    0.85999    1.000
    Zn28     Zn       0.21468    0.21383    0.85995    1.000
    N105     N        0.14887    0.21673    0.82723    1.000
    N106     N        0.19727    0.19743    0.05083    1.000
    N107     N        0.06757    0.21643    0.82713    1.000
    N108     N        0.22037    0.06923    0.82643    1.000
    N109     N        0.19757    0.19763    0.94933    1.000
    N110     N        0.21977    0.15073    0.82623    1.000
    C599     C        0.11167    0.22323    0.85743    1.000
    C600     C        0.22787    0.11233    0.85033    1.000
    C601     C        0.15097    0.15163    0.03003    1.000
    H235     H        0.12237    0.12423    0.05513    1.000
    C602     C        0.22427    0.22423    0.99993    1.000
    C603     C        0.09057    0.23263    0.76803    1.000
    C604     C        0.14137    0.23173    0.76883    1.000
    C605     C        0.17837    0.11223    0.77883    1.000
    H236     H        0.15597    0.12103    0.75333    1.000
    C606     C        0.07067    0.24353    0.71553    1.000
    H237     H        0.03697    0.24493    0.71603    1.000
    C607     C        0.17337    0.24323    0.71543    1.000
    H238     H        0.20867    0.24503    0.71533    1.000
    C608     C        0.15007    0.25233    0.66153    1.000
    C609     C        0.10087    0.25233    0.66103    1.000
    C610     C        0.17867    0.06673    0.77893    1.000
    H239     H        0.15627    0.03553    0.75333    1.000
    C611     C        0.26467    0.13213    0.90513    1.000
    H240     H        0.29027    0.11713    0.90403    1.000
    H241     H        0.28627    0.17303    0.90503    1.000
    H242     H        0.24167    0.11893    0.94213    1.000
    C612     C        0.15127    0.15043    0.97013    1.000
    H243     H        0.12387    0.12143    0.94533    1.000
    C613     C        0.28037    0.28053    0.99983    1.000
    H244     H        0.31057    0.27413    0.01353    1.000
    H245     H        0.28837    0.29593    0.95843    1.000
    H246     H        0.27757    0.30683    0.02753    1.000
    Cl157    Cl       0.18627    0.25973    0.59443    1.000
    N111     N        0.32787    0.94743    0.82653    1.000
    N112     N        0.28047    0.99373    0.83963    1.000
    C614     C        0.28037    0.94713    0.83303    1.000
    H247     H        0.24597    0.91263    0.83293    1.000
    C615     C        0.44567    0.07733    0.89483    1.000
    C616     C        0.41787    0.10753    0.89843    1.000
    C617     C        0.36357    0.08473    0.87623    1.000
    C618     C        0.33707    0.03153    0.85043    1.000
    C619     C        0.36487    0.00133    0.84673    1.000
    C620     C        0.41917    0.02413    0.86903    1.000
    Cl158    Cl       0.51657    0.11923    0.91433    1.000
    Cl159    Cl       0.37177    0.13563    0.64663    1.000
    C621     C        0.25827    0.15443    0.77923    1.000
    C622     C        0.25807    0.10403    0.77993    1.000
    C623     C        0.29197    0.19683    0.73323    1.000
    C624     C        0.13447    0.26963    0.90643    1.000
    H248     H        0.15207    0.30643    0.88653    1.000
    H249     H        0.10367    0.26533    0.93243    1.000
    H250     H        0.16237    0.26673    0.93153    1.000
    C625     C        0.11217    0.17753    0.78183    1.000
    H251     H        0.12107    0.15523    0.75623    1.000
    C626     C        0.06557    0.17763    0.78153    1.000
    H252     H        0.03477    0.15573    0.75543    1.000
    C627     C        0.21067    0.10603    0.86033    1.000
    C628     C        0.29397    0.09613    0.73413    1.000
    C629     C        0.32217    0.18653    0.69553    1.000
    C630     C        0.36717    0.27763    0.85823    1.000
    C631     C        0.33717    0.30533    0.84983    1.000
    C632     C        0.36517    0.36323    0.84453    1.000
    C633     C        0.42327    0.39353    0.84743    1.000
    C634     C        0.45337    0.36603    0.85583    1.000
    C635     C        0.42527    0.30803    0.86113    1.000
    C636     C        0.32357    0.13773    0.69673    1.000
    C637     C        0.41867    0.39333    0.87133    1.000
    C638     C        0.45087    0.37963    0.90633    1.000
    C639     C        0.35767    0.27533    0.87733    1.000
    C640     C        0.41767    0.30903    0.89533    1.000
    C641     C        0.42267    0.39133    0.81433    1.000
    C642     C        0.45077    0.35443    0.80583    1.000
    C643     C        0.36567    0.27433    0.82333    1.000
    Cl160    Cl       0.52187    0.39603    0.85933    1.000
    Cl161    Cl       0.46357    0.27693    0.87333    1.000
    Cl162    Cl       0.44957    0.27513    0.92933    1.000
    Cl163    Cl       0.51637    0.39793    0.91533    1.000
    Cl164    Cl       0.45737    0.26783    0.80233    1.000
    Cl165    Cl       0.50697    0.39313    0.73533    1.000
    Cl166    Cl       0.52007    0.39013    0.78633    1.000
    C644     C        0.42017    0.29743    0.81233    1.000
    Cl167    Cl       0.07327    0.26033    0.59453    1.000
    Cl168    Cl       0.29577    0.09803    0.68693    1.000
    Zn29     Zn       0.88139    0.33418    0.19333    1.000
    Zn30     Zn       0.88134    0.54717    0.19329    1.000
    N113     N        0.81553    0.55007    0.16057    1.000
    N114     N        0.86393    0.53077    0.38417    1.000
    N115     N        0.73423    0.54977    0.16047    1.000
    N116     N        0.88703    0.40257    0.15977    1.000
    N117     N        0.86423    0.53097    0.28267    1.000
    N118     N        0.88643    0.48407    0.15957    1.000
    C645     C        0.77833    0.55657    0.19077    1.000
    C646     C        0.89453    0.44567    0.18367    1.000
    C647     C        0.81763    0.48497    0.36337    1.000
    H253     H        0.78903    0.45757    0.38847    1.000
    C648     C        0.89093    0.55757    0.33327    1.000
    C649     C        0.75723    0.56597    0.10137    1.000
    C650     C        0.80803    0.56507    0.10217    1.000
    C651     C        0.84503    0.44557    0.11217    1.000
    H254     H        0.82263    0.45437    0.08667    1.000
    C652     C        0.73733    0.57687    0.04887    1.000
    H255     H        0.70363    0.57827    0.04937    1.000
    C653     C        0.84003    0.57657    0.04877    1.000
    H256     H        0.87533    0.57837    0.04867    1.000
    C654     C        0.81673    0.58567    0.99487    1.000
    C655     C        0.76753    0.58567    0.99437    1.000
    C656     C        0.84533    0.40007    0.11227    1.000
    H257     H        0.82293    0.36887    0.08667    1.000
    C657     C        0.93133    0.46547    0.23847    1.000
    H258     H        0.95693    0.45047    0.23737    1.000
    H259     H        0.95293    0.50637    0.23837    1.000
    H260     H        0.90833    0.45227    0.27547    1.000
    C658     C        0.81793    0.48377    0.30347    1.000
    H261     H        0.79053    0.45477    0.27867    1.000
    C659     C        0.94703    0.61387    0.33317    1.000
    H262     H        0.97723    0.60747    0.34687    1.000
    H263     H        0.95503    0.62927    0.29177    1.000
    H264     H        0.94423    0.64017    0.36087    1.000
    Cl169    Cl       0.85293    0.59307    0.92777    1.000
    N119     N        0.99453    0.28077    0.15987    1.000
    N120     N        0.94713    0.32707    0.17297    1.000
    C660     C        0.94703    0.28047    0.16637    1.000
    H265     H        0.91263    0.24597    0.16627    1.000
    C661     C        0.11233    0.41067    0.22817    1.000
    C662     C        0.08453    0.44087    0.23177    1.000
    C663     C        0.03023    0.41807    0.20957    1.000
    C664     C        0.00373    0.36487    0.18377    1.000
    C665     C        0.03153    0.33467    0.18007    1.000
    C666     C        0.08583    0.35747    0.20237    1.000
    Cl170    Cl       0.18323    0.45257    0.24767    1.000
    Cl171    Cl       0.03843    0.46897    0.97997    1.000
    C667     C        0.92493    0.48777    0.11257    1.000
    C668     C        0.92473    0.43737    0.11327    1.000
    C669     C        0.95863    0.53017    0.06657    1.000
    C670     C        0.80113    0.60297    0.23977    1.000
    H266     H        0.81873    0.63977    0.21987    1.000
    H267     H        0.77033    0.59867    0.26577    1.000
    H268     H        0.82903    0.60007    0.26487    1.000
    C671     C        0.77883    0.51087    0.11517    1.000
    H269     H        0.78773    0.48857    0.08957    1.000
    C672     C        0.73223    0.51097    0.11487    1.000
    H270     H        0.70143    0.48907    0.08877    1.000
    C673     C        0.87733    0.43937    0.19367    1.000
    C674     C        0.96063    0.42947    0.06747    1.000
    C675     C        0.98883    0.51987    0.02887    1.000
    C676     C        0.03383    0.61097    0.19157    1.000
    C677     C        0.00383    0.63867    0.18317    1.000
    C678     C        0.03183    0.69657    0.17787    1.000
    C679     C        0.08993    0.72687    0.18077    1.000
    C680     C        0.12003    0.69937    0.18917    1.000
    C681     C        0.09193    0.64137    0.19447    1.000
    C682     C        0.99023    0.47107    0.03007    1.000
    C683     C        0.08533    0.72667    0.20467    1.000
    C684     C        0.11753    0.71297    0.23967    1.000
    C685     C        0.02433    0.60867    0.21067    1.000
    C686     C        0.08433    0.64237    0.22867    1.000
    C687     C        0.08933    0.72467    0.14767    1.000
    C688     C        0.11743    0.68777    0.13917    1.000
    C689     C        0.03233    0.60767    0.15667    1.000
    Cl172    Cl       0.18853    0.72937    0.19267    1.000
    Cl173    Cl       0.13023    0.61027    0.20667    1.000
    Cl174    Cl       0.11623    0.60847    0.26267    1.000
    Cl175    Cl       0.18303    0.73127    0.24867    1.000
    Cl176    Cl       0.12403    0.60117    0.13567    1.000
    Cl177    Cl       0.17363    0.72647    0.06867    1.000
    Cl178    Cl       0.18673    0.72347    0.11967    1.000
    C690     C        0.08683    0.63077    0.14567    1.000
    Cl179    Cl       0.73993    0.59367    0.92787    1.000
    Cl180    Cl       0.96243    0.43137    0.02027    1.000
    Zn31     Zn       0.33249    0.88055    0.52666    1.000
    Zn32     Zn       0.11950    0.66751    0.52662    1.000
    N121     N        0.11660    0.59880    0.49390    1.000
    N122     N        0.13590    0.66650    0.71750    1.000
    N123     N        0.11690    0.51780    0.49380    1.000
    N124     N        0.26410    0.81780    0.49310    1.000
    N125     N        0.13570    0.66660    0.61600    1.000
    N126     N        0.18260    0.73570    0.49290    1.000
    C691     C        0.11010    0.55510    0.52410    1.000
    C692     C        0.22100    0.78220    0.51700    1.000
    C693     C        0.18170    0.66600    0.69670    1.000
    H271     H        0.20910    0.66480    0.72180    1.000
    C694     C        0.10910    0.66670    0.66660    1.000
    C695     C        0.10070    0.52460    0.43470    1.000
    C696     C        0.10160    0.57630    0.43550    1.000
    C697     C        0.22110    0.73280    0.44550    1.000
    H272     H        0.21230    0.70160    0.42000    1.000
    C698     C        0.08980    0.49380    0.38220    1.000
    H273     H        0.08840    0.45870    0.38270    1.000
    C699     C        0.09010    0.59680    0.38210    1.000
    H274     H        0.08830    0.63030    0.38200    1.000
    C700     C        0.08100    0.56440    0.32820    1.000
    C701     C        0.08100    0.51520    0.32770    1.000
    C702     C        0.26660    0.77860    0.44560    1.000
    H275     H        0.29780    0.78740    0.42000    1.000
    C703     C        0.20120    0.79920    0.57180    1.000
    H276     H        0.21620    0.83980    0.57070    1.000
    H277     H        0.16030    0.77990    0.57170    1.000
    H278     H        0.21440    0.78940    0.60880    1.000
    C704     C        0.18290    0.66750    0.63680    1.000
    H279     H        0.21190    0.66910    0.61200    1.000
    C705     C        0.05280    0.66650    0.66650    1.000
    H280     H        0.05920    0.70310    0.68020    1.000
    H281     H        0.03740    0.65910    0.62510    1.000
    H282     H        0.02650    0.63740    0.69420    1.000
    Cl181    Cl       0.07360    0.59320    0.26110    1.000
    N127     N        0.38590    0.04710    0.49320    1.000
    N128     N        0.33960    0.95340    0.50630    1.000
    C706     C        0.38620    0.99990    0.49970    1.000
    H283     H        0.42070    0.00000    0.49960    1.000
    C707     C        0.25600    0.03500    0.56150    1.000
    C708     C        0.22580    0.97700    0.56510    1.000
    C709     C        0.24860    0.94550    0.54290    1.000
    C710     C        0.30180    0.97220    0.51710    1.000
    C711     C        0.33200    0.03020    0.51340    1.000
    C712     C        0.30920    0.06170    0.53570    1.000
    Cl182    Cl       0.21410    0.06400    0.58100    1.000
    Cl183    Cl       0.19770    0.90280    0.31330    1.000
    C713     C        0.17890    0.77050    0.44590    1.000
    C714     C        0.22930    0.82070    0.44660    1.000
    C715     C        0.13650    0.76180    0.39990    1.000
    C716     C        0.06370    0.53150    0.57310    1.000
    H284     H        0.02690    0.51230    0.55320    1.000
    H285     H        0.06800    0.50500    0.59910    1.000
    H286     H        0.06660    0.56230    0.59820    1.000
    C717     C        0.15580    0.60130    0.44850    1.000
    H287     H        0.17810    0.63250    0.42290    1.000
    C718     C        0.15570    0.55460    0.44820    1.000
    H288     H        0.17760    0.54570    0.42210    1.000
    C719     C        0.22730    0.77130    0.52700    1.000
    C720     C        0.23720    0.86450    0.40080    1.000
    C721     C        0.14680    0.80230    0.36220    1.000
    C722     C        0.05570    0.75620    0.52490    1.000
    C723     C        0.02800    0.69850    0.51650    1.000
    C724     C        0.97010    0.66860    0.51120    1.000
    C725     C        0.93980    0.69640    0.51410    1.000
    C726     C        0.96730    0.75400    0.52250    1.000
    C727     C        0.02530    0.78390    0.52780    1.000
    C728     C        0.19560    0.85250    0.36340    1.000
    C729     C        0.94000    0.69200    0.53800    1.000
    C730     C        0.95370    0.73790    0.57300    1.000
    C731     C        0.05800    0.74900    0.54400    1.000
    C732     C        0.02430    0.77530    0.56200    1.000
    C733     C        0.94200    0.69800    0.48100    1.000
    C734     C        0.97890    0.76300    0.47250    1.000
    C735     C        0.05900    0.75800    0.49000    1.000
    Cl184    Cl       0.93730    0.79250    0.52600    1.000
    Cl185    Cl       0.05640    0.85330    0.54000    1.000
    Cl186    Cl       0.05820    0.84110    0.59600    1.000
    Cl187    Cl       0.93540    0.78510    0.58200    1.000
    Cl188    Cl       0.06550    0.85620    0.46900    1.000
    Cl189    Cl       0.94020    0.78050    0.40200    1.000
    Cl190    Cl       0.94320    0.79660    0.45300    1.000
    C736     C        0.03590    0.78940    0.47900    1.000
    Cl191    Cl       0.07300    0.47960    0.26120    1.000
    Cl192    Cl       0.23530    0.86440    0.35360    1.000
    Zn33     Zn       0.99916    0.21388    0.85999    1.000
    Zn34     Zn       0.78617    0.00084    0.85995    1.000
    N129     N        0.78327    0.93213    0.82723    1.000
    N130     N        0.80257    0.99983    0.05083    1.000
    N131     N        0.78357    0.85113    0.82713    1.000
    N132     N        0.93077    0.15113    0.82643    1.000
    N133     N        0.80237    0.99993    0.94933    1.000
    N134     N        0.84927    0.06903    0.82623    1.000
    C737     C        0.77677    0.88843    0.85743    1.000
    C738     C        0.88767    0.11553    0.85033    1.000
    C739     C        0.84837    0.99933    0.03003    1.000
    H289     H        0.87577    0.99813    0.05513    1.000
    C740     C        0.77577    0.00003    0.99993    1.000
    C741     C        0.76737    0.85793    0.76803    1.000
    C742     C        0.76827    0.90963    0.76883    1.000
    C743     C        0.88777    0.06613    0.77883    1.000
    H290     H        0.87897    0.03493    0.75333    1.000
    C744     C        0.75647    0.82713    0.71553    1.000
    H291     H        0.75507    0.79203    0.71603    1.000
    C745     C        0.75677    0.93013    0.71543    1.000
    H292     H        0.75497    0.96363    0.71533    1.000
    C746     C        0.74767    0.89773    0.66153    1.000
    C747     C        0.74767    0.84853    0.66103    1.000
    C748     C        0.93327    0.11193    0.77893    1.000
    H293     H        0.96447    0.12073    0.75333    1.000
    C749     C        0.86787    0.13253    0.90513    1.000
    H294     H        0.88287    0.17313    0.90403    1.000
    H295     H        0.82697    0.11323    0.90503    1.000
    H296     H        0.88107    0.12273    0.94213    1.000
    C750     C        0.84957    0.00083    0.97013    1.000
    H297     H        0.87857    0.00243    0.94533    1.000
    C751     C        0.71947    0.99983    0.99983    1.000
    H298     H        0.72587    0.03643    0.01353    1.000
    H299     H        0.70407    0.99243    0.95843    1.000
    H300     H        0.69317    0.97073    0.02753    1.000
    Cl193    Cl       0.74027    0.92653    0.59443    1.000
    N135     N        0.05257    0.38043    0.82653    1.000
    N136     N        0.00627    0.28673    0.83963    1.000
    C752     C        0.05287    0.33323    0.83303    1.000
    H301     H        0.08737    0.33333    0.83293    1.000
    C753     C        0.92267    0.36833    0.89483    1.000
    C754     C        0.89247    0.31033    0.89843    1.000
    C755     C        0.91527    0.27883    0.87623    1.000
    C756     C        0.96847    0.30553    0.85043    1.000
    C757     C        0.99867    0.36353    0.84673    1.000
    C758     C        0.97587    0.39503    0.86903    1.000
    Cl194    Cl       0.88077    0.39733    0.91433    1.000
    Cl195    Cl       0.86437    0.23613    0.64663    1.000
    C759     C        0.84557    0.10383    0.77923    1.000
    C760     C        0.89597    0.15403    0.77993    1.000
    C761     C        0.80317    0.09513    0.73323    1.000
    C762     C        0.73037    0.86483    0.90643    1.000
    H302     H        0.69357    0.84563    0.88653    1.000
    H303     H        0.73467    0.83833    0.93243    1.000
    H304     H        0.73327    0.89563    0.93153    1.000
    C763     C        0.82247    0.93463    0.78183    1.000
    H305     H        0.84477    0.96583    0.75623    1.000
    C764     C        0.82237    0.88793    0.78153    1.000
    H306     H        0.84427    0.87903    0.75543    1.000
    C765     C        0.89397    0.10463    0.86033    1.000
    C766     C        0.90387    0.19783    0.73413    1.000
    C767     C        0.81347    0.13563    0.69553    1.000
    C768     C        0.72237    0.08953    0.85823    1.000
    C769     C        0.69467    0.03183    0.84983    1.000
    C770     C        0.63677    0.00193    0.84453    1.000
    C771     C        0.60647    0.02973    0.84743    1.000
    C772     C        0.63397    0.08733    0.85583    1.000
    C773     C        0.69197    0.11723    0.86113    1.000
    C774     C        0.86227    0.18583    0.69673    1.000
    C775     C        0.60667    0.02533    0.87133    1.000
    C776     C        0.62037    0.07123    0.90633    1.000
    C777     C        0.72467    0.08233    0.87733    1.000
    C778     C        0.69097    0.10863    0.89533    1.000
    C779     C        0.60867    0.03133    0.81433    1.000
    C780     C        0.64557    0.09633    0.80583    1.000
    C781     C        0.72567    0.09133    0.82333    1.000
    Cl196    Cl       0.60397    0.12583    0.85933    1.000
    Cl197    Cl       0.72307    0.18663    0.87333    1.000
    Cl198    Cl       0.72487    0.17443    0.92933    1.000
    Cl199    Cl       0.60207    0.11843    0.91533    1.000
    Cl200    Cl       0.73217    0.18953    0.80233    1.000
    Cl201    Cl       0.60687    0.11383    0.73533    1.000
    Cl202    Cl       0.60987    0.12993    0.78633    1.000
    C782     C        0.70257    0.12273    0.81233    1.000
    Cl203    Cl       0.73967    0.81293    0.59453    1.000
    Cl204    Cl       0.90197    0.19773    0.68693    1.000
    Zn35     Zn       0.66582    0.54722    0.19333    1.000
    Zn36     Zn       0.45283    0.33418    0.19329    1.000
    N137     N        0.44993    0.26547    0.16057    1.000
    N138     N        0.46923    0.33317    0.38417    1.000
    N139     N        0.45023    0.18447    0.16047    1.000
    N140     N        0.59743    0.48447    0.15977    1.000
    N141     N        0.46903    0.33327    0.28267    1.000
    N142     N        0.51593    0.40237    0.15957    1.000
    C783     C        0.44343    0.22177    0.19077    1.000
    C784     C        0.55433    0.44887    0.18367    1.000
    C785     C        0.51503    0.33267    0.36337    1.000
    H307     H        0.54243    0.33147    0.38847    1.000
    C786     C        0.44243    0.33337    0.33327    1.000
    C787     C        0.43403    0.19127    0.10137    1.000
    C788     C        0.43493    0.24297    0.10217    1.000
    C789     C        0.55443    0.39947    0.11217    1.000
    H308     H        0.54563    0.36827    0.08667    1.000
    C790     C        0.42313    0.16047    0.04887    1.000
    H309     H        0.42173    0.12537    0.04937    1.000
    C791     C        0.42343    0.26347    0.04877    1.000
    H310     H        0.42163    0.29697    0.04867    1.000
    C792     C        0.41433    0.23107    0.99487    1.000
    C793     C        0.41433    0.18187    0.99437    1.000
    C794     C        0.59993    0.44527    0.11227    1.000
    H311     H        0.63113    0.45407    0.08667    1.000
    C795     C        0.53453    0.46587    0.23847    1.000
    H312     H        0.54953    0.50647    0.23737    1.000
    H313     H        0.49363    0.44657    0.23837    1.000
    H314     H        0.54773    0.45607    0.27547    1.000
    C796     C        0.51623    0.33417    0.30347    1.000
    H315     H        0.54523    0.33577    0.27867    1.000
    C797     C        0.38613    0.33317    0.33317    1.000
    H316     H        0.39253    0.36977    0.34687    1.000
    H317     H        0.37073    0.32577    0.29177    1.000
    H318     H        0.35983    0.30407    0.36087    1.000
    Cl205    Cl       0.40693    0.25987    0.92777    1.000
    N143     N        0.71923    0.71377    0.15987    1.000
    N144     N        0.67293    0.62007    0.17297    1.000
    C798     C        0.71953    0.66657    0.16637    1.000
    H319     H        0.75403    0.66667    0.16627    1.000
    C799     C        0.58933    0.70167    0.22817    1.000
    C800     C        0.55913    0.64367    0.23177    1.000
    C801     C        0.58193    0.61217    0.20957    1.000
    C802     C        0.63513    0.63887    0.18377    1.000
    C803     C        0.66533    0.69687    0.18007    1.000
    C804     C        0.64253    0.72837    0.20237    1.000
    Cl206    Cl       0.54743    0.73067    0.24767    1.000
    Cl207    Cl       0.53103    0.56947    0.97997    1.000
    C805     C        0.51223    0.43717    0.11257    1.000
    C806     C        0.56263    0.48737    0.11327    1.000
    C807     C        0.46983    0.42847    0.06657    1.000
    C808     C        0.39703    0.19817    0.23977    1.000
    H320     H        0.36023    0.17897    0.21987    1.000
    H321     H        0.40133    0.17167    0.26577    1.000
    H322     H        0.39993    0.22897    0.26487    1.000
    C809     C        0.48913    0.26797    0.11517    1.000
    H323     H        0.51143    0.29917    0.08957    1.000
    C810     C        0.48903    0.22127    0.11487    1.000
    H324     H        0.51093    0.21237    0.08877    1.000
    C811     C        0.56063    0.43797    0.19367    1.000
    C812     C        0.57053    0.53117    0.06747    1.000
    C813     C        0.48013    0.46897    0.02887    1.000
    C814     C        0.38903    0.42287    0.19157    1.000
    C815     C        0.36133    0.36517    0.18317    1.000
    C816     C        0.30343    0.33527    0.17787    1.000
    C817     C        0.27313    0.36307    0.18077    1.000
    C818     C        0.30063    0.42067    0.18917    1.000
    C819     C        0.35863    0.45057    0.19447    1.000
    C820     C        0.52893    0.51917    0.03007    1.000
    C821     C        0.27333    0.35867    0.20467    1.000
    C822     C        0.28703    0.40457    0.23967    1.000
    C823     C        0.39133    0.41567    0.21067    1.000
    C824     C        0.35763    0.44197    0.22867    1.000
    C825     C        0.27533    0.36467    0.14767    1.000
    C826     C        0.31223    0.42967    0.13917    1.000
    C827     C        0.39233    0.42467    0.15667    1.000
    Cl208    Cl       0.27063    0.45917    0.19267    1.000
    Cl209    Cl       0.38973    0.51997    0.20667    1.000
    Cl210    Cl       0.39153    0.50777    0.26267    1.000
    Cl211    Cl       0.26873    0.45177    0.24867    1.000
    Cl212    Cl       0.39883    0.52287    0.13567    1.000
    Cl213    Cl       0.27353    0.44717    0.06867    1.000
    Cl214    Cl       0.27653    0.46327    0.11967    1.000
    C828     C        0.36923    0.45607    0.14567    1.000
    Cl215    Cl       0.40633    0.14627    0.92787    1.000
    Cl216    Cl       0.56863    0.53107    0.02027    1.000
