# CIF file generated by openbabel 3.1.0, see https://openbabel.org
data_I
_chemical_name_common 'image0'
_cell_length_a 19.046
_cell_length_b 19.046
_cell_length_c 8.3306
_cell_angle_alpha 90
_cell_angle_beta 90
_cell_angle_gamma 120
_space_group_name_H-M_alt 'P 1'
_space_group_name_Hall 'P 1'
loop_
    _symmetry_equiv_pos_as_xyz
    x,y,z
loop_
    _atom_site_label
    _atom_site_type_symbol
    _atom_site_fract_x
    _atom_site_fract_y
    _atom_site_fract_z
    _atom_site_occupancy
    Ga1      Ga       0.73698    0.26313    0.12590    1.000
    Ga2      Ga       0.81344    0.00000    0.00000    1.000
    P1       P        0.82167    0.91080    0.31850    1.000
    P2       P        0.83171    0.16840    0.10080    1.000
    H1       H        0.84000    0.18400    0.25700    1.000
    P3       P        0.58257    0.16498    0.33180    1.000
    O1       O        0.77620    0.88730    0.49400    1.000
    H2       H        0.24680    0.16240    0.47870    1.000
    H3       H        0.76470    0.92730    0.57150    1.000
    O2       O        0.91150    0.95500    0.34800    1.000
    O3       O        0.79680    0.96440    0.22870    1.000
    O4       O        0.79670    0.83300    0.22790    1.000
    O5       O        0.70820    0.28940    0.93920    1.000
    O6       O        0.78630    0.08200    0.04810    1.000
    O7       O        0.91870    0.21410    0.05360    1.000
    O8       O        0.54030    0.08020    0.39580    1.000
    O9       O        0.65310    0.17850    0.22800    1.000
    O10      O        0.61100    0.22430    0.47370    1.000
    O11      O        0.52620    0.17880    0.22850    1.000
    O12      O        0.78830    0.21190    0.04050    1.000
    O13      O        0.85290    0.92670    0.94760    1.000
    H4       H        0.90420    0.95000    0.93800    1.000
    Ga3      Ga       0.73687    0.47385    0.12590    1.000
    Ga4      Ga       0.00000    0.81344    0.00000    1.000
    P4       P        0.08920    0.91087    0.31850    1.000
    P5       P        0.83160    0.66331    0.10080    1.000
    H5       H        0.81600    0.65600    0.25700    1.000
    P6       P        0.83502    0.41759    0.33180    1.000
    O14      O        0.11270    0.88890    0.49400    1.000
    H6       H        0.83760    0.08440    0.47870    1.000
    H7       H        0.07270    0.83740    0.57150    1.000
    O15      O        0.04500    0.95650    0.34800    1.000
    O16      O        0.03560    0.83240    0.22870    1.000
    O17      O        0.16700    0.96370    0.22790    1.000
    O18      O        0.71060    0.41880    0.93920    1.000
    O19      O        0.91800    0.70430    0.04810    1.000
    O20      O        0.78590    0.70460    0.05360    1.000
    O21      O        0.91980    0.46010    0.39580    1.000
    O22      O        0.82150    0.47460    0.22800    1.000
    O23      O        0.77570    0.38670    0.47370    1.000
    O24      O        0.82120    0.34740    0.22850    1.000
    O25      O        0.78810    0.57640    0.04050    1.000
    O26      O        0.07330    0.92620    0.94760    1.000
    H8       H        0.05000    0.95420    0.93800    1.000
    Ga5      Ga       0.52615    0.26302    0.12590    1.000
    Ga6      Ga       0.18656    0.18656    0.00000    1.000
    P7       P        0.08913    0.17833    0.31850    1.000
    P8       P        0.33669    0.16829    0.10080    1.000
    H9       H        0.34400    0.16000    0.25700    1.000
    P9       P        0.58241    0.41743    0.33180    1.000
    O27      O        0.11110    0.22380    0.49400    1.000
    H10      H        0.91560    0.75320    0.47870    1.000
    H11      H        0.16260    0.23530    0.57150    1.000
    O28      O        0.04350    0.08850    0.34800    1.000
    O29      O        0.16760    0.20320    0.22870    1.000
    O30      O        0.03630    0.20330    0.22790    1.000
    O31      O        0.58120    0.29180    0.93920    1.000
    O32      O        0.29570    0.21370    0.04810    1.000
    O33      O        0.29540    0.08130    0.05360    1.000
    O34      O        0.53990    0.45970    0.39580    1.000
    O35      O        0.52540    0.34690    0.22800    1.000
    O36      O        0.61330    0.38900    0.47370    1.000
    O37      O        0.65260    0.47380    0.22850    1.000
    O38      O        0.42360    0.21170    0.04050    1.000
    O39      O        0.07380    0.14710    0.94760    1.000
    H12      H        0.04580    0.09580    0.93800    1.000
    Ga7      Ga       0.26302    0.73687    0.87410    1.000
    Ga8      Ga       0.18656    0.00000    0.00000    1.000
    P10      P        0.17833    0.08920    0.68150    1.000
    P11      P        0.16829    0.83160    0.89920    1.000
    H13      H        0.16000    0.81600    0.74300    1.000
    P12      P        0.41743    0.83502    0.66820    1.000
    O40      O        0.22380    0.11270    0.50600    1.000
    H14      H        0.75320    0.83760    0.52130    1.000
    H15      H        0.23530    0.07270    0.42850    1.000
    O41      O        0.08850    0.04500    0.65200    1.000
    O42      O        0.20320    0.03560    0.77130    1.000
    O43      O        0.20330    0.16700    0.77210    1.000
    O44      O        0.29180    0.71060    0.06080    1.000
    O45      O        0.21370    0.91800    0.95190    1.000
    O46      O        0.08130    0.78590    0.94640    1.000
    O47      O        0.45970    0.91980    0.60420    1.000
    O48      O        0.34690    0.82150    0.77200    1.000
    O49      O        0.38900    0.77570    0.52630    1.000
    O50      O        0.47380    0.82120    0.77150    1.000
    O51      O        0.21170    0.78810    0.95950    1.000
    O52      O        0.14710    0.07330    0.05240    1.000
    H16      H        0.09580    0.05000    0.06200    1.000
    Ga9      Ga       0.26313    0.52615    0.87410    1.000
    Ga10     Ga       0.00000    0.18656    0.00000    1.000
    P13      P        0.91080    0.08913    0.68150    1.000
    P14      P        0.16840    0.33669    0.89920    1.000
    H17      H        0.18400    0.34400    0.74300    1.000
    P15      P        0.16498    0.58241    0.66820    1.000
    O53      O        0.88730    0.11110    0.50600    1.000
    H18      H        0.16240    0.91560    0.52130    1.000
    H19      H        0.92730    0.16260    0.42850    1.000
    O54      O        0.95500    0.04350    0.65200    1.000
    O55      O        0.96440    0.16760    0.77130    1.000
    O56      O        0.83300    0.03630    0.77210    1.000
    O57      O        0.28940    0.58120    0.06080    1.000
    O58      O        0.08200    0.29570    0.95190    1.000
    O59      O        0.21410    0.29540    0.94640    1.000
    O60      O        0.08020    0.53990    0.60420    1.000
    O61      O        0.17850    0.52540    0.77200    1.000
    O62      O        0.22430    0.61330    0.52630    1.000
    O63      O        0.17880    0.65260    0.77150    1.000
    O64      O        0.21190    0.42360    0.95950    1.000
    O65      O        0.92670    0.07380    0.05240    1.000
    H20      H        0.95000    0.04580    0.06200    1.000
    Ga11     Ga       0.47385    0.73698    0.87410    1.000
    Ga12     Ga       0.81344    0.81344    0.00000    1.000
    P16      P        0.91087    0.82167    0.68150    1.000
    P17      P        0.66331    0.83171    0.89920    1.000
    H21      H        0.65600    0.84000    0.74300    1.000
    P18      P        0.41759    0.58257    0.66820    1.000
    O66      O        0.88890    0.77620    0.50600    1.000
    H22      H        0.08440    0.24680    0.52130    1.000
    H23      H        0.83740    0.76470    0.42850    1.000
    O67      O        0.95650    0.91150    0.65200    1.000
    O68      O        0.83240    0.79680    0.77130    1.000
    O69      O        0.96370    0.79670    0.77210    1.000
    O70      O        0.41880    0.70820    0.06080    1.000
    O71      O        0.70430    0.78630    0.95190    1.000
    O72      O        0.70460    0.91870    0.94640    1.000
    O73      O        0.46010    0.54030    0.60420    1.000
    O74      O        0.47460    0.65310    0.77200    1.000
    O75      O        0.38670    0.61100    0.52630    1.000
    O76      O        0.34740    0.52620    0.77150    1.000
    O77      O        0.57640    0.78830    0.95950    1.000
    O78      O        0.92620    0.85290    0.05240    1.000
    H24      H        0.95420    0.90420    0.06200    1.000
    Ga13     Ga       0.66667    0.33333    0.48378    1.000
    P19      P        0.66667    0.33333    0.88280    1.000
    O79      O        0.66667    0.33333    0.70430    1.000
    Ga14     Ga       0.33333    0.66667    0.51622    1.000
    P20      P        0.33333    0.66667    0.11720    1.000
    O80      O        0.33333    0.66667    0.29570    1.000
    Ga15     Ga       0.00000    0.00000    0.50000    1.000
