# CIF file generated by openbabel 3.1.0, see https://openbabel.org
data_I
_chemical_name_common 'image0'
_cell_length_a 18.825
_cell_length_b 8.3912
_cell_length_c 9.2901
_cell_angle_alpha 90
_cell_angle_beta 94.064
_cell_angle_gamma 90
_space_group_name_H-M_alt 'P 1'
_space_group_name_Hall 'P 1'
loop_
    _symmetry_equiv_pos_as_xyz
    x,y,z
loop_
    _atom_site_label
    _atom_site_type_symbol
    _atom_site_fract_x
    _atom_site_fract_y
    _atom_site_fract_z
    _atom_site_occupancy
    O1       O        0.58045    0.51110    0.32625    1.000
    O2       O        0.54913    0.66350    0.54950    1.000
    O3       O        0.61634    0.40170    0.56840    1.000
    H1       H        0.60670    0.41580    0.65220    1.000
    P1       P        0.60214    0.56056    0.47953    1.000
    C1       C        0.75035    0.43600    0.36170    1.000
    H2       H        0.79810    0.41400    0.33730    1.000
    H3       H        0.71900    0.43600    0.27550    1.000
    H4       H        0.73540    0.35540    0.42650    1.000
    C2       C        0.74803    0.59700    0.43360    1.000
    C3       C        0.68631    0.66410    0.48490    1.000
    C4       C        0.68966    0.81420    0.54940    1.000
    H5       H        0.64820    0.85680    0.58260    1.000
    O4       O        0.08045    0.01110    0.32625    1.000
    O5       O        0.04913    0.16350    0.54950    1.000
    O6       O        0.11634    0.90170    0.56840    1.000
    H6       H        0.10670    0.91580    0.65220    1.000
    P2       P        0.10214    0.06056    0.47953    1.000
    C5       C        0.25035    0.93600    0.36170    1.000
    H7       H        0.29810    0.91400    0.33730    1.000
    H8       H        0.21900    0.93600    0.27550    1.000
    H9       H        0.23540    0.85540    0.42650    1.000
    C6       C        0.24803    0.09700    0.43360    1.000
    C7       C        0.18631    0.16410    0.48490    1.000
    C8       C        0.18966    0.31420    0.54940    1.000
    H10      H        0.14820    0.35680    0.58260    1.000
    O7       O        0.41955    0.51110    0.17375    1.000
    O8       O        0.45087    0.66350    0.95050    1.000
    O9       O        0.38366    0.40170    0.93160    1.000
    H11      H        0.39330    0.41580    0.84780    1.000
    P3       P        0.39786    0.56056    0.02047    1.000
    C9       C        0.24965    0.43600    0.13830    1.000
    H12      H        0.20190    0.41400    0.16270    1.000
    H13      H        0.28100    0.43600    0.22450    1.000
    H14      H        0.26460    0.35540    0.07350    1.000
    C10      C        0.25197    0.59700    0.06640    1.000
    C11      C        0.31369    0.66410    0.01510    1.000
    C12      C        0.31034    0.81420    0.95060    1.000
    H15      H        0.35180    0.85680    0.91740    1.000
    O10      O        0.91955    0.01110    0.17375    1.000
    O11      O        0.95087    0.16350    0.95050    1.000
    O12      O        0.88366    0.90170    0.93160    1.000
    H16      H        0.89330    0.91580    0.84780    1.000
    P4       P        0.89786    0.06056    0.02047    1.000
    C13      C        0.74965    0.93600    0.13830    1.000
    H17      H        0.70190    0.91400    0.16270    1.000
    H18      H        0.78100    0.93600    0.22450    1.000
    H19      H        0.76460    0.85540    0.07350    1.000
    C14      C        0.75197    0.09700    0.06640    1.000
    C15      C        0.81369    0.16410    0.01510    1.000
    C16      C        0.81034    0.31420    0.95060    1.000
    H20      H        0.85180    0.35680    0.91740    1.000
    O13      O        0.41955    0.48890    0.67375    1.000
    O14      O        0.45087    0.33650    0.45050    1.000
    O15      O        0.38366    0.59830    0.43160    1.000
    H21      H        0.39330    0.58420    0.34780    1.000
    P5       P        0.39786    0.43944    0.52047    1.000
    C17      C        0.24965    0.56400    0.63830    1.000
    H22      H        0.20190    0.58600    0.66270    1.000
    H23      H        0.28100    0.56400    0.72450    1.000
    H24      H        0.26460    0.64460    0.57350    1.000
    C18      C        0.25197    0.40300    0.56640    1.000
    C19      C        0.31369    0.33590    0.51510    1.000
    C20      C        0.31034    0.18580    0.45060    1.000
    H25      H        0.35180    0.14320    0.41740    1.000
    O16      O        0.91955    0.98890    0.67375    1.000
    O17      O        0.95087    0.83650    0.45050    1.000
    O18      O        0.88366    0.09830    0.43160    1.000
    H26      H        0.89330    0.08420    0.34780    1.000
    P6       P        0.89786    0.93944    0.52047    1.000
    C21      C        0.74965    0.06400    0.63830    1.000
    H27      H        0.70190    0.08600    0.66270    1.000
    H28      H        0.78100    0.06400    0.72450    1.000
    H29      H        0.76460    0.14460    0.57350    1.000
    C22      C        0.75197    0.90300    0.56640    1.000
    C23      C        0.81369    0.83590    0.51510    1.000
    C24      C        0.81034    0.68580    0.45060    1.000
    H30      H        0.85180    0.64320    0.41740    1.000
    O19      O        0.58045    0.48890    0.82625    1.000
    O20      O        0.54913    0.33650    0.04950    1.000
    O21      O        0.61634    0.59830    0.06840    1.000
    H31      H        0.60670    0.58420    0.15220    1.000
    P7       P        0.60214    0.43944    0.97953    1.000
    C25      C        0.75035    0.56400    0.86170    1.000
    H32      H        0.79810    0.58600    0.83730    1.000
    H33      H        0.71900    0.56400    0.77550    1.000
    H34      H        0.73540    0.64460    0.92650    1.000
    C26      C        0.74803    0.40300    0.93360    1.000
    C27      C        0.68631    0.33590    0.98490    1.000
    C28      C        0.68966    0.18580    0.04940    1.000
    H35      H        0.64820    0.14320    0.08260    1.000
    O22      O        0.08045    0.98890    0.82625    1.000
    O23      O        0.04913    0.83650    0.04950    1.000
    O24      O        0.11634    0.09830    0.06840    1.000
    H36      H        0.10670    0.08420    0.15220    1.000
    P8       P        0.10214    0.93944    0.97953    1.000
    C29      C        0.25035    0.06400    0.86170    1.000
    H37      H        0.29810    0.08600    0.83730    1.000
    H38      H        0.21900    0.06400    0.77550    1.000
    H39      H        0.23540    0.14460    0.92650    1.000
    C30      C        0.24803    0.90300    0.93360    1.000
    C31      C        0.18631    0.83590    0.98490    1.000
    C32      C        0.18966    0.68580    0.04940    1.000
    H40      H        0.14820    0.64320    0.08260    1.000
    Mn1      Mn       0.50000    0.33867    0.25000    1.000
    Mn2      Mn       0.00000    0.83867    0.25000    1.000
    Mn3      Mn       0.50000    0.66133    0.75000    1.000
    Mn4      Mn       0.00000    0.16133    0.75000    1.000
