# CIF file generated by openbabel 3.1.0, see https://openbabel.org
data_I
_chemical_name_common 'CIVTEH_clean'
_cell_length_a 12.2342
_cell_length_b 13.9583
_cell_length_c 19.6064
_cell_angle_alpha 83.8179
_cell_angle_beta 75.7751
_cell_angle_gamma 64.0082
_space_group_name_H-M_alt 'P 1'
_space_group_name_Hall 'P 1'
loop_
    _symmetry_equiv_pos_as_xyz
    x,y,z
loop_
    _atom_site_label
    _atom_site_type_symbol
    _atom_site_fract_x
    _atom_site_fract_y
    _atom_site_fract_z
    _atom_site_occupancy
    Cu1      Cu       0.69679    0.44396    0.96223    1.000
    Cu2      Cu       0.85925    0.44396    0.53777    1.000
    Cu3      Cu       0.30321    0.55604    0.03777    1.000
    Cu4      Cu       0.14075    0.55604    0.46223    1.000
    H1       H        0.62140    0.75660    0.87190    1.000
    H2       H        0.54250    0.93160    0.83160    1.000
    H3       H        0.19880    0.93980    0.86640    1.000
    H4       H        0.27780    0.76420    0.90830    1.000
    H5       H        0.97770    0.38340    0.76900    1.000
    H6       H        0.85660    0.46960    0.68630    1.000
    H7       H        0.09100    0.24660    0.54560    1.000
    H8       H        0.21260    0.15700    0.62510    1.000
    H9       H        0.33100    0.41200    0.80840    1.000
    H10      H        0.33590    0.52920    0.88230    1.000
    H11      H        0.19340    0.40840    0.04890    1.000
    H12      H        0.18040    0.28920    0.98200    1.000
    H13      H        0.62200    0.75660    0.62810    1.000
    H14      H        0.52590    0.93160    0.66840    1.000
    H15      H        0.86140    0.93980    0.63360    1.000
    H16      H        0.95800    0.76420    0.59170    1.000
    H17      H        0.63890    0.38340    0.73100    1.000
    H18      H        0.67380    0.46960    0.81370    1.000
    H19      H        0.66240    0.24660    0.95440    1.000
    H20      H        0.63040    0.15700    0.87490    1.000
    H21      H        0.25700    0.41200    0.69160    1.000
    H22      H        0.13490    0.52920    0.61770    1.000
    H23      H        0.39820    0.40840    0.45110    1.000
    H24      H        0.53040    0.28920    0.51800    1.000
    H25      H        0.37860    0.24340    0.12810    1.000
    H26      H        0.45750    0.06840    0.16840    1.000
    H27      H        0.80120    0.06020    0.13360    1.000
    H28      H        0.72220    0.23580    0.09170    1.000
    H29      H        0.02230    0.61660    0.23100    1.000
    H30      H        0.14340    0.53040    0.31370    1.000
    H31      H        0.90900    0.75340    0.45440    1.000
    H32      H        0.78740    0.84300    0.37490    1.000
    H33      H        0.66900    0.58800    0.19160    1.000
    H34      H        0.66410    0.47080    0.11770    1.000
    H35      H        0.80660    0.59160    0.95110    1.000
    H36      H        0.81960    0.71080    0.01800    1.000
    H37      H        0.37800    0.24340    0.37190    1.000
    H38      H        0.47410    0.06840    0.33160    1.000
    H39      H        0.13860    0.06020    0.36640    1.000
    H40      H        0.04200    0.23580    0.40830    1.000
    H41      H        0.36110    0.61660    0.26900    1.000
    H42      H        0.32620    0.53040    0.18630    1.000
    H43      H        0.33760    0.75340    0.04560    1.000
    H44      H        0.36960    0.84300    0.12510    1.000
    H45      H        0.74300    0.58800    0.30840    1.000
    H46      H        0.86510    0.47080    0.38230    1.000
    H47      H        0.60180    0.59160    0.54890    1.000
    H48      H        0.46960    0.71080    0.48200    1.000
    C1       C        0.50413    0.63034    0.92180    1.000
    C2       C        0.45607    0.74306    0.89340    1.000
    C3       C        0.53550    0.79380    0.87100    1.000
    C4       C        0.48820    0.89780    0.84760    1.000
    C5       C        0.36297    0.95366    0.84700    1.000
    C6       C        0.28430    0.90320    0.86820    1.000
    C7       C        0.33200    0.79800    0.89240    1.000
    C8       C        0.30910    0.06840    0.82610    1.000
    C9       C        0.24270    0.10600    0.77340    1.000
    C10      C        0.18920    0.21480    0.75850    1.000
    C11      C        0.25986    0.25228    0.84540    1.000
    C12      C        0.31970    0.14380    0.86100    1.000
    C13      C        0.40950    0.11020    0.90490    1.000
    C14      C        0.25310    0.02520    0.72800    1.000
    C15      C        0.11128    0.26324    0.70430    1.000
    C16      C        0.00290    0.35500    0.72290    1.000
    C17      C        0.93040    0.40580    0.67360    1.000
    C18      C        0.06733    0.27534    0.59150    1.000
    C19      C        0.14098    0.22224    0.63840    1.000
    C20      C        0.25890    0.33540    0.88730    1.000
    C21      C        0.30320    0.40860    0.85790    1.000
    C22      C        0.30630    0.47780    0.90280    1.000
    C23      C        0.22340    0.40780    0.99940    1.000
    C24      C        0.21530    0.33660    0.96010    1.000
    C25      C        0.86553    0.63034    0.57820    1.000
    C26      C        0.80087    0.74306    0.60660    1.000
    C27      C        0.67070    0.79380    0.62900    1.000
    C28      C        0.61400    0.89780    0.65240    1.000
    C29      C        0.68337    0.95366    0.65300    1.000
    C30      C        0.81250    0.90320    0.63180    1.000
    C31      C        0.87000    0.79800    0.60760    1.000
    C32      C        0.62250    0.06840    0.67390    1.000
    C33      C        0.65130    0.10600    0.72660    1.000
    C34      C        0.59600    0.21480    0.74150    1.000
    C35      C        0.48786    0.25228    0.65460    1.000
    C36      C        0.53650    0.14380    0.63900    1.000
    C37      C        0.48030    0.11020    0.59510    1.000
    C38      C        0.72170    0.02520    0.77200    1.000
    C39      C        0.62548    0.26324    0.79570    1.000
    C40      C        0.64210    0.35500    0.77710    1.000
    C41      C        0.66380    0.40580    0.82640    1.000
    C42      C        0.65733    0.27534    0.90850    1.000
    C43      C        0.63678    0.22224    0.86160    1.000
    C44      C        0.40570    0.33540    0.61270    1.000
    C45      C        0.28820    0.40860    0.64210    1.000
    C46      C        0.21590    0.47780    0.59720    1.000
    C47      C        0.36880    0.40780    0.50060    1.000
    C48      C        0.44810    0.33660    0.53990    1.000
    C49      C        0.49587    0.36966    0.07820    1.000
    C50      C        0.54393    0.25694    0.10660    1.000
    C51      C        0.46450    0.20620    0.12900    1.000
    C52      C        0.51180    0.10220    0.15240    1.000
    C53      C        0.63703    0.04634    0.15300    1.000
    C54      C        0.71570    0.09680    0.13180    1.000
    C55      C        0.66800    0.20200    0.10760    1.000
    C56      C        0.69090    0.93160    0.17390    1.000
    C57      C        0.75730    0.89400    0.22660    1.000
    C58      C        0.81080    0.78520    0.24150    1.000
    C59      C        0.74014    0.74772    0.15460    1.000
    C60      C        0.68030    0.85620    0.13900    1.000
    C61      C        0.59050    0.88980    0.09510    1.000
    C62      C        0.74690    0.97480    0.27200    1.000
    C63      C        0.88872    0.73676    0.29570    1.000
    C64      C        0.99710    0.64500    0.27710    1.000
    C65      C        0.06960    0.59420    0.32640    1.000
    C66      C        0.93267    0.72466    0.40850    1.000
    C67      C        0.85902    0.77776    0.36160    1.000
    C68      C        0.74110    0.66460    0.11270    1.000
    C69      C        0.69680    0.59140    0.14210    1.000
    C70      C        0.69370    0.52220    0.09720    1.000
    C71      C        0.77660    0.59220    0.00060    1.000
    C72      C        0.78470    0.66340    0.03990    1.000
    C73      C        0.13447    0.36966    0.42180    1.000
    C74      C        0.19913    0.25694    0.39340    1.000
    C75      C        0.32930    0.20620    0.37100    1.000
    C76      C        0.38600    0.10220    0.34760    1.000
    C77      C        0.31663    0.04634    0.34700    1.000
    C78      C        0.18750    0.09680    0.36820    1.000
    C79      C        0.13000    0.20200    0.39240    1.000
    C80      C        0.37750    0.93160    0.32610    1.000
    C81      C        0.34870    0.89400    0.27340    1.000
    C82      C        0.40400    0.78520    0.25850    1.000
    C83      C        0.51214    0.74772    0.34540    1.000
    C84      C        0.46350    0.85620    0.36100    1.000
    C85      C        0.51970    0.88980    0.40490    1.000
    C86      C        0.27830    0.97480    0.22800    1.000
    C87      C        0.37452    0.73676    0.20430    1.000
    C88      C        0.35790    0.64500    0.22290    1.000
    C89      C        0.33620    0.59420    0.17360    1.000
    C90      C        0.34267    0.72466    0.09150    1.000
    C91      C        0.36322    0.77776    0.13840    1.000
    C92      C        0.59430    0.66460    0.38730    1.000
    C93      C        0.71180    0.59140    0.35790    1.000
    C94      C        0.78410    0.52220    0.40280    1.000
    C95      C        0.63120    0.59220    0.49940    1.000
    C96      C        0.55190    0.66340    0.46010    1.000
    N1       N        0.19959    0.28622    0.79298    1.000
    N2       N        0.47050    0.09180    0.94430    1.000
    N3       N        0.25650    0.96340    0.69330    1.000
    N4       N        0.96369    0.36562    0.60773    1.000
    N5       N        0.27116    0.47648    0.97150    1.000
    N6       N        0.51419    0.28622    0.70702    1.000
    N7       N        0.43770    0.09180    0.55570    1.000
    N8       N        0.78010    0.96340    0.80670    1.000
    N9       N        0.67069    0.36562    0.89227    1.000
    N10      N        0.25236    0.47648    0.52850    1.000
    N11      N        0.80041    0.71378    0.20702    1.000
    N12      N        0.52950    0.90820    0.05570    1.000
    N13      N        0.74350    0.03660    0.30670    1.000
    N14      N        0.03631    0.63438    0.39227    1.000
    N15      N        0.72884    0.52352    0.02850    1.000
    N16      N        0.48581    0.71378    0.29298    1.000
    N17      N        0.56230    0.90820    0.44430    1.000
    N18      N        0.21990    0.03660    0.19330    1.000
    N19      N        0.32931    0.63438    0.10773    1.000
    N20      N        0.74764    0.52352    0.47150    1.000
    O1       O        0.62127    0.58206    0.91576    1.000
    O2       O        0.42951    0.59298    0.94915    1.000
    O3       O        0.79667    0.58206    0.58424    1.000
    O4       O        0.97751    0.59298    0.55085    1.000
    O5       O        0.37873    0.41794    0.08424    1.000
    O6       O        0.57049    0.40702    0.05085    1.000
    O7       O        0.20333    0.41794    0.41576    1.000
    O8       O        0.02249    0.40702    0.44915    1.000
