# CIF file generated by openbabel 3.1.0, see https://openbabel.org
data_I
_chemical_name_common 'image0'
_cell_length_a 10.145
_cell_length_b 10.8858
_cell_length_c 13.8515
_cell_angle_alpha 78.706
_cell_angle_beta 79.297
_cell_angle_gamma 86.253
_space_group_name_H-M_alt 'P 1'
_space_group_name_Hall 'P 1'
loop_
    _symmetry_equiv_pos_as_xyz
    x,y,z
loop_
    _atom_site_label
    _atom_site_type_symbol
    _atom_site_fract_x
    _atom_site_fract_y
    _atom_site_fract_z
    _atom_site_occupancy
    Tb1      Tb       0.31989    0.92335    0.29664    1.000
    C1       C        0.59530    0.90090    0.21420    1.000
    C2       C        0.73780    0.88550    0.16690    1.000
    C3       C        0.84370    0.89590    0.21430    1.000
    H1       H        0.82680    0.91350    0.27860    1.000
    C4       C        0.97250    0.88080    0.16790    1.000
    C5       C        0.00030    0.85430    0.07200    1.000
    H2       H        0.08850    0.84700    0.03950    1.000
    C6       C        0.89390    0.83890    0.02530    1.000
    C7       C        0.76420    0.85830    0.07050    1.000
    H3       H        0.69380    0.85340    0.03710    1.000
    C8       C        0.09210    0.89320    0.21570    1.000
    C9       C        0.00390    0.70620    0.91100    1.000
    C10      C        0.00890    0.66610    0.81340    1.000
    C11      C        0.01490    0.74740    0.72220    1.000
    H4       H        0.01210    0.83360    0.71880    1.000
    C12      C        0.02520    0.69770    0.63610    1.000
    H5       H        0.03460    0.75240    0.57480    1.000
    C13      C        0.01610    0.49680    0.72580    1.000
    H6       H        0.01540    0.41100    0.72750    1.000
    C14      C        0.01090    0.53800    0.81530    1.000
    H7       H        0.00870    0.48100    0.87510    1.000
    C15      C        0.27180    0.60500    0.35310    1.000
    C16      C        0.29980    0.52810    0.27320    1.000
    C17      C        0.32310    0.58270    0.17190    1.000
    H8       H        0.32960    0.66920    0.15330    1.000
    C18      C        0.33660    0.51080    0.09860    1.000
    C19      C        0.33540    0.38120    0.12590    1.000
    H9       H        0.34690    0.33180    0.07710    1.000
    C20      C        0.31690    0.32520    0.22740    1.000
    C21      C        0.29880    0.39860    0.29970    1.000
    H10      H        0.28570    0.36070    0.36690    1.000
    C22      C        0.31260    0.18910    0.25250    1.000
    C23      C        0.33370    0.51910    0.92080    1.000
    C24      C        0.34820    0.60190    0.81890    1.000
    C25      C        0.34800    0.73100    0.80080    1.000
    H11      H        0.34440    0.77430    0.85280    1.000
    C26      C        0.35350    0.79530    0.70240    1.000
    H12      H        0.35310    0.88240    0.69050    1.000
    C27      C        0.35910    0.61450    0.64270    1.000
    H13      H        0.36210    0.57400    0.58910    1.000
    C28      C        0.35500    0.54330    0.73670    1.000
    H14      H        0.35660    0.45640    0.74570    1.000
    N1       N        0.91800    0.80220    0.93020    1.000
    H15      H        0.87690    0.84200    0.88390    1.000
    N2       N        0.02230    0.57430    0.63740    1.000
    N3       N        0.35420    0.57070    0.99700    1.000
    H16      H        0.38030    0.64680    0.98290    1.000
    N4       N        0.35910    0.73870    0.62530    1.000
    O1       O        0.56210    0.90110    0.30790    1.000
    O2       O        0.50560    0.91430    0.16210    1.000
    O3       O        0.07250    0.90530    0.30780    1.000
    O4       O        0.20530    0.88880    0.16630    1.000
    O5       O        0.07630    0.65260    0.96870    1.000
    O6       O        0.32150    0.71220    0.33340    1.000
    O7       O        0.19930    0.56270    0.43340    1.000
    O8       O        0.32580    0.13060    0.33900    1.000
    O9       O        0.29560    0.12640    0.18900    1.000
    O10      O        0.30550    0.41190    0.92870    1.000
    Tb2      Tb       0.68011    0.07665    0.70336    1.000
    C29      C        0.40470    0.09910    0.78580    1.000
    C30      C        0.26220    0.11450    0.83310    1.000
    C31      C        0.15630    0.10410    0.78570    1.000
    H17      H        0.17320    0.08650    0.72140    1.000
    C32      C        0.02750    0.11920    0.83210    1.000
    C33      C        0.99970    0.14570    0.92800    1.000
    H18      H        0.91150    0.15300    0.96050    1.000
    C34      C        0.10610    0.16110    0.97470    1.000
    C35      C        0.23580    0.14170    0.92950    1.000
    H19      H        0.30620    0.14660    0.96290    1.000
    C36      C        0.90790    0.10680    0.78430    1.000
    C37      C        0.99610    0.29380    0.08900    1.000
    C38      C        0.99110    0.33390    0.18660    1.000
    C39      C        0.98510    0.25260    0.27780    1.000
    H20      H        0.98790    0.16640    0.28120    1.000
    C40      C        0.97480    0.30230    0.36390    1.000
    H21      H        0.96540    0.24760    0.42520    1.000
    C41      C        0.98390    0.50320    0.27420    1.000
    H22      H        0.98460    0.58900    0.27250    1.000
    C42      C        0.98910    0.46200    0.18470    1.000
    H23      H        0.99130    0.51900    0.12490    1.000
    C43      C        0.72820    0.39500    0.64690    1.000
    C44      C        0.70020    0.47190    0.72680    1.000
    C45      C        0.67690    0.41730    0.82810    1.000
    H24      H        0.67040    0.33080    0.84670    1.000
    C46      C        0.66340    0.48920    0.90140    1.000
    C47      C        0.66460    0.61880    0.87410    1.000
    H25      H        0.65310    0.66820    0.92290    1.000
    C48      C        0.68310    0.67480    0.77260    1.000
    C49      C        0.70120    0.60140    0.70030    1.000
    H26      H        0.71430    0.63930    0.63310    1.000
    C50      C        0.68740    0.81090    0.74750    1.000
    C51      C        0.66630    0.48090    0.07920    1.000
    C52      C        0.65180    0.39810    0.18110    1.000
    C53      C        0.65200    0.26900    0.19920    1.000
    H27      H        0.65560    0.22570    0.14720    1.000
    C54      C        0.64650    0.20470    0.29760    1.000
    H28      H        0.64690    0.11760    0.30950    1.000
    C55      C        0.64090    0.38550    0.35730    1.000
    H29      H        0.63790    0.42600    0.41090    1.000
    C56      C        0.64500    0.45670    0.26330    1.000
    H30      H        0.64340    0.54360    0.25430    1.000
    N5       N        0.08200    0.19780    0.06980    1.000
    H31      H        0.12310    0.15800    0.11610    1.000
    N6       N        0.97770    0.42570    0.36260    1.000
    N7       N        0.64580    0.42930    0.00300    1.000
    H32      H        0.61970    0.35320    0.01710    1.000
    N8       N        0.64090    0.26130    0.37470    1.000
    O11      O        0.43790    0.09890    0.69210    1.000
    O12      O        0.49440    0.08570    0.83790    1.000
    O13      O        0.92750    0.09470    0.69220    1.000
    O14      O        0.79470    0.11120    0.83370    1.000
    O15      O        0.92370    0.34740    0.03130    1.000
    O16      O        0.67850    0.28780    0.66660    1.000
    O17      O        0.80070    0.43730    0.56660    1.000
    O18      O        0.67420    0.86940    0.66100    1.000
    O19      O        0.70440    0.87360    0.81100    1.000
    O20      O        0.69450    0.58810    0.07130    1.000
    Mn1      Mn       0.00000    0.50000    0.50000    1.000
