# CIF file generated by openbabel 3.1.0, see https://openbabel.org
data_I
_chemical_name_common 'image0'
_cell_length_a 9.5251
_cell_length_b 12.5605
_cell_length_c 18.9231
_cell_angle_alpha 106.077
_cell_angle_beta 98.874
_cell_angle_gamma 100.643
_space_group_name_H-M_alt 'P 1'
_space_group_name_Hall 'P 1'
loop_
    _symmetry_equiv_pos_as_xyz
    x,y,z
loop_
    _atom_site_label
    _atom_site_type_symbol
    _atom_site_fract_x
    _atom_site_fract_y
    _atom_site_fract_z
    _atom_site_occupancy
    Ce1      Ce       0.23413    0.01779    0.00391    1.000
    O1       O        0.45780    0.02940    0.08755    1.000
    O2       O        0.68880    0.02030    0.11865    1.000
    O3       O        0.00200    0.89130    0.92420    1.000
    N1       N        0.56810    0.15930    0.36710    1.000
    O4       O        0.76320    0.81890    0.88360    1.000
    N2       N        0.00510    0.15300    0.68220    1.000
    O5       O        0.10630    0.12680    0.93870    1.000
    O6       O        0.86040    0.07070    0.90490    1.000
    N3       N        0.95490    0.61040    0.67310    1.000
    C1       C        0.92410    0.23240    0.57850    1.000
    C2       C        0.89150    0.82340    0.87720    1.000
    C3       C        0.56620    0.07660    0.21690    1.000
    C4       C        0.90540    0.41890    0.57330    1.000
    C5       C        0.57010    0.03790    0.13400    1.000
    C6       C        0.98090    0.34850    0.60230    1.000
    C7       C        0.43990    0.09640    0.24040    1.000
    H1       H        0.35180    0.08190    0.20430    1.000
    C8       C        0.71060    0.25340    0.50170    1.000
    C9       C        0.69230    0.09610    0.27120    1.000
    H2       H        0.77950    0.08080    0.25670    1.000
    C10      C        0.44240    0.13700    0.31570    1.000
    H3       H        0.35550    0.14950    0.33180    1.000
    C11      C        0.77070    0.37270    0.52290    1.000
    C12      C        0.69000    0.13810    0.34680    1.000
    H4       H        0.77590    0.15170    0.38420    1.000
    C13      C        0.91620    0.74200    0.80530    1.000
    C14      C        0.99130    0.12630    0.81920    1.000
    C15      C        0.78620    0.18320    0.52830    1.000
    C16      C        0.87890    0.14780    0.70450    1.000
    H5       H        0.79500    0.15300    0.67250    1.000
    C17      C        0.01110    0.15500    0.60210    1.000
    H6       H        0.11430    0.18090    0.59950    1.000
    H7       H        0.97250    0.07660    0.56650    1.000
    C18      C        0.12240    0.13350    0.79460    1.000
    H8       H        0.20810    0.13000    0.82620    1.000
    C19      C        0.86940    0.13480    0.77310    1.000
    H9       H        0.77930    0.13170    0.78910    1.000
    C20      C        0.12410    0.40140    0.65940    1.000
    H10      H        0.16270    0.34140    0.67360    1.000
    H11      H        0.10800    0.45520    0.70420    1.000
    H12      H        0.19450    0.44200    0.63740    1.000
    C21      C        0.05490    0.73940    0.79470    1.000
    H13      H        0.13770    0.78350    0.83350    1.000
    C22      C        0.79750    0.67620    0.74980    1.000
    H14      H        0.70120    0.67690    0.75720    1.000
    C23      C        0.07280    0.67260    0.72780    1.000
    H15      H        0.16830    0.67010    0.71980    1.000
    C24      C        0.81860    0.60960    0.68370    1.000
    H16      H        0.73680    0.56270    0.64520    1.000
    C25      C        0.97500    0.54540    0.59720    1.000
    H17      H        0.08110    0.55620    0.59840    1.000
    H18      H        0.93230    0.57760    0.55910    1.000
    C26      C        0.98600    0.10720    0.89490    1.000
    C27      C        0.12880    0.14550    0.72510    1.000
    H19      H        0.21720    0.14850    0.70750    1.000
    C28      C        0.56110    0.20240    0.45040    1.000
    H20      H        0.50290    0.26070    0.45710    1.000
    H21      H        0.51050    0.13810    0.46490    1.000
    C29      C        0.68460    0.44380    0.48820    1.000
    H22      H        0.60290    0.45510    0.51290    1.000
    H23      H        0.64650    0.40380    0.43430    1.000
    H24      H        0.74900    0.51810    0.49520    1.000
    C30      C        0.72680    0.05460    0.50330    1.000
    H25      H        0.62490    0.03490    0.47560    1.000
    H26      H        0.73150    0.02850    0.54770    1.000
    H27      H        0.78580    0.01740    0.47060    1.000
    Ce2      Ce       0.76587    0.98221    0.99609    1.000
    O7       O        0.54220    0.97060    0.91245    1.000
    O8       O        0.31120    0.97970    0.88135    1.000
    O9       O        0.99800    0.10870    0.07580    1.000
    N4       N        0.43190    0.84070    0.63290    1.000
    O10      O        0.23680    0.18110    0.11640    1.000
    N5       N        0.99490    0.84700    0.31780    1.000
    O11      O        0.89370    0.87320    0.06130    1.000
    O12      O        0.13960    0.92930    0.09510    1.000
    N6       N        0.04510    0.38960    0.32690    1.000
    C31      C        0.07590    0.76760    0.42150    1.000
    C32      C        0.10850    0.17660    0.12280    1.000
    C33      C        0.43380    0.92340    0.78310    1.000
    C34      C        0.09460    0.58110    0.42670    1.000
    C35      C        0.42990    0.96210    0.86600    1.000
    C36      C        0.01910    0.65150    0.39770    1.000
    C37      C        0.56010    0.90360    0.75960    1.000
    H28      H        0.64820    0.91810    0.79570    1.000
    C38      C        0.28940    0.74660    0.49830    1.000
    C39      C        0.30770    0.90390    0.72880    1.000
    H29      H        0.22050    0.91920    0.74330    1.000
    C40      C        0.55760    0.86300    0.68430    1.000
    H30      H        0.64450    0.85050    0.66820    1.000
    C41      C        0.22930    0.62730    0.47710    1.000
    C42      C        0.31000    0.86190    0.65320    1.000
    H31      H        0.22410    0.84830    0.61580    1.000
    C43      C        0.08380    0.25800    0.19470    1.000
    C44      C        0.00870    0.87370    0.18080    1.000
    C45      C        0.21380    0.81680    0.47170    1.000
    C46      C        0.12110    0.85220    0.29550    1.000
    H32      H        0.20500    0.84700    0.32750    1.000
    C47      C        0.98890    0.84500    0.39790    1.000
    H33      H        0.88570    0.81910    0.40050    1.000
    H34      H        0.02750    0.92340    0.43350    1.000
    C48      C        0.87760    0.86650    0.20540    1.000
    H35      H        0.79190    0.87000    0.17380    1.000
    C49      C        0.13060    0.86520    0.22690    1.000
    H36      H        0.22070    0.86830    0.21090    1.000
    C50      C        0.87590    0.59860    0.34060    1.000
    H37      H        0.83730    0.65860    0.32640    1.000
    H38      H        0.89200    0.54480    0.29580    1.000
    H39      H        0.80550    0.55800    0.36260    1.000
    C51      C        0.94510    0.26060    0.20530    1.000
    H40      H        0.86230    0.21650    0.16650    1.000
    C52      C        0.20250    0.32380    0.25020    1.000
    H41      H        0.29880    0.32310    0.24280    1.000
    C53      C        0.92720    0.32740    0.27220    1.000
    H42      H        0.83170    0.32990    0.28020    1.000
    C54      C        0.18140    0.39040    0.31630    1.000
    H43      H        0.26320    0.43730    0.35480    1.000
    C55      C        0.02500    0.45460    0.40280    1.000
    H44      H        0.91890    0.44380    0.40160    1.000
    H45      H        0.06770    0.42240    0.44090    1.000
    C56      C        0.01400    0.89280    0.10510    1.000
    C57      C        0.87120    0.85450    0.27490    1.000
    H46      H        0.78280    0.85150    0.29250    1.000
    C58      C        0.43890    0.79760    0.54960    1.000
    H47      H        0.49710    0.73930    0.54290    1.000
    H48      H        0.48950    0.86190    0.53510    1.000
    C59      C        0.31540    0.55620    0.51180    1.000
    H49      H        0.39710    0.54490    0.48710    1.000
    H50      H        0.35350    0.59620    0.56570    1.000
    H51      H        0.25100    0.48190    0.50480    1.000
    C60      C        0.27320    0.94540    0.49670    1.000
    H52      H        0.37510    0.96510    0.52440    1.000
    H53      H        0.26850    0.97150    0.45230    1.000
    H54      H        0.21420    0.98260    0.52940    1.000
