# CIF file generated by openbabel 3.1.0, see https://openbabel.org
data_I
_chemical_name_common 'image0'
_cell_length_a 48.884
_cell_length_b 48.884
_cell_length_c 8.5632
_cell_angle_alpha 90
_cell_angle_beta 90
_cell_angle_gamma 120
_space_group_name_H-M_alt 'P 1'
_space_group_name_Hall 'P 1'
loop_
    _symmetry_equiv_pos_as_xyz
    x,y,z
loop_
    _atom_site_label
    _atom_site_type_symbol
    _atom_site_fract_x
    _atom_site_fract_y
    _atom_site_fract_z
    _atom_site_occupancy
    K1       K        0.59219    0.08755    0.75900    1.000
    Pr1      Pr       0.51478    0.00956    0.45095    1.000
    S1       S        0.57690    0.09194    0.39234    1.000
    S2       S        0.75601    0.08047    0.23701    1.000
    O1       O        0.53509    0.02976    0.19060    1.000
    O2       O        0.55390    0.04554    0.95420    1.000
    O3       O        0.55723    0.06459    0.49260    1.000
    O4       O        0.59792    0.11928    0.49160    1.000
    O5       O        0.55890    0.09765    0.27850    1.000
    O6       O        0.78779    0.14602    0.62100    1.000
    O7       O        0.80636    0.14848    0.38380    1.000
    O8       O        0.77202    0.07590    0.36810    1.000
    O9       O        0.77761    0.10265    0.12210    1.000
    O10      O        0.73248    0.05192    0.16670    1.000
    C1       C        0.59147    0.06200    0.15740    1.000
    C2       C        0.60164    0.08104    0.28980    1.000
    C3       C        0.63274    0.09456    0.33850    1.000
    H1       H        0.63920    0.10740    0.42650    1.000
    C4       C        0.65483    0.08929    0.25750    1.000
    C5       C        0.64461    0.07140    0.12280    1.000
    H2       H        0.65890    0.06830    0.06470    1.000
    C6       C        0.61331    0.05798    0.07150    1.000
    H3       H        0.60710    0.04630    0.97950    1.000
    C7       C        0.55809    0.04502    0.09930    1.000
    C8       C        0.68770    0.10228    0.31250    1.000
    C9       C        0.70185    0.12810    0.41250    1.000
    H4       H        0.69080    0.13800    0.44500    1.000
    C10      C        0.73259    0.13914    0.46390    1.000
    H5       H        0.74150    0.15600    0.53330    1.000
    C11      C        0.75007    0.12618    0.41640    1.000
    C12      C        0.73595    0.09983    0.31260    1.000
    C13      C        0.70517    0.08814    0.26730    1.000
    H6       H        0.69560    0.07020    0.20440    1.000
    C14      C        0.78321    0.14083    0.47820    1.000
    K2       K        0.25886    0.42088    0.09233    1.000
    Pr2      Pr       0.18145    0.34289    0.78428    1.000
    S3       S        0.24357    0.42527    0.72567    1.000
    S4       S        0.42268    0.41380    0.57034    1.000
    O11      O        0.20176    0.36309    0.52393    1.000
    O12      O        0.22057    0.37887    0.28753    1.000
    O13      O        0.22390    0.39792    0.82593    1.000
    O14      O        0.26459    0.45261    0.82493    1.000
    O15      O        0.22557    0.43098    0.61183    1.000
    O16      O        0.45446    0.47935    0.95433    1.000
    O17      O        0.47303    0.48181    0.71713    1.000
    O18      O        0.43869    0.40923    0.70143    1.000
    O19      O        0.44428    0.43598    0.45543    1.000
    O20      O        0.39915    0.38525    0.50003    1.000
    C15      C        0.25814    0.39533    0.49073    1.000
    C16      C        0.26831    0.41437    0.62313    1.000
    C17      C        0.29941    0.42789    0.67183    1.000
    H7       H        0.30587    0.44073    0.75983    1.000
    C18      C        0.32150    0.42262    0.59083    1.000
    C19      C        0.31128    0.40473    0.45613    1.000
    H8       H        0.32557    0.40163    0.39803    1.000
    C20      C        0.27998    0.39131    0.40483    1.000
    H9       H        0.27377    0.37963    0.31283    1.000
    C21      C        0.22476    0.37835    0.43263    1.000
    C22      C        0.35437    0.43561    0.64583    1.000
    C23      C        0.36852    0.46143    0.74583    1.000
    H10      H        0.35747    0.47133    0.77833    1.000
    C24      C        0.39926    0.47247    0.79723    1.000
    H11      H        0.40817    0.48933    0.86663    1.000
    C25      C        0.41674    0.45951    0.74973    1.000
    C26      C        0.40262    0.43316    0.64593    1.000
    C27      C        0.37184    0.42147    0.60063    1.000
    H12      H        0.36227    0.40353    0.53773    1.000
    C28      C        0.44988    0.47416    0.81153    1.000
    K3       K        0.92552    0.75422    0.42567    1.000
    Pr3      Pr       0.84811    0.67623    0.11762    1.000
    S5       S        0.91023    0.75861    0.05901    1.000
    S6       S        0.08934    0.74714    0.90368    1.000
    O21      O        0.86842    0.69643    0.85727    1.000
    O22      O        0.88723    0.71221    0.62087    1.000
    O23      O        0.89056    0.73126    0.15927    1.000
    O24      O        0.93125    0.78595    0.15827    1.000
    O25      O        0.89223    0.76432    0.94517    1.000
    O26      O        0.12112    0.81269    0.28767    1.000
    O27      O        0.13969    0.81515    0.05047    1.000
    O28      O        0.10535    0.74257    0.03477    1.000
    O29      O        0.11094    0.76932    0.78877    1.000
    O30      O        0.06581    0.71859    0.83337    1.000
    C29      C        0.92480    0.72867    0.82407    1.000
    C30      C        0.93497    0.74771    0.95647    1.000
    C31      C        0.96607    0.76123    0.00517    1.000
    H13      H        0.97253    0.77407    0.09317    1.000
    C32      C        0.98816    0.75596    0.92417    1.000
    C33      C        0.97794    0.73807    0.78947    1.000
    H14      H        0.99223    0.73497    0.73137    1.000
    C34      C        0.94664    0.72465    0.73817    1.000
    H15      H        0.94043    0.71297    0.64617    1.000
    C35      C        0.89142    0.71169    0.76597    1.000
    C36      C        0.02103    0.76895    0.97917    1.000
    C37      C        0.03518    0.79477    0.07917    1.000
    H16      H        0.02413    0.80467    0.11167    1.000
    C38      C        0.06592    0.80581    0.13057    1.000
    H17      H        0.07483    0.82267    0.19997    1.000
    C39      C        0.08340    0.79285    0.08307    1.000
    C40      C        0.06928    0.76650    0.97927    1.000
    C41      C        0.03850    0.75481    0.93397    1.000
    H18      H        0.02893    0.73687    0.87107    1.000
    C42      C        0.11654    0.80750    0.14487    1.000
    K4       K        0.91245    0.50464    0.75900    1.000
    Pr4      Pr       0.99044    0.50522    0.45095    1.000
    S7       S        0.90806    0.48496    0.39234    1.000
    S8       S        0.91953    0.67554    0.23701    1.000
    O31      O        0.97024    0.50533    0.19060    1.000
    O32      O        0.95446    0.50836    0.95420    1.000
    O33      O        0.93541    0.49264    0.49260    1.000
    O34      O        0.88072    0.47864    0.49160    1.000
    O35      O        0.90235    0.46125    0.27850    1.000
    O36      O        0.85398    0.64177    0.62100    1.000
    O37      O        0.85152    0.65788    0.38380    1.000
    O38      O        0.92410    0.69612    0.36810    1.000
    O39      O        0.89735    0.67496    0.12210    1.000
    O40      O        0.94808    0.68056    0.16670    1.000
    C43      C        0.93800    0.52947    0.15740    1.000
    C44      C        0.91896    0.52060    0.28980    1.000
    C45      C        0.90544    0.53818    0.33850    1.000
    H19      H        0.89260    0.53180    0.42650    1.000
    C46      C        0.91071    0.56554    0.25750    1.000
    C47      C        0.92860    0.57321    0.12280    1.000
    H20      H        0.93170    0.59060    0.06470    1.000
    C48      C        0.94202    0.55533    0.07150    1.000
    H21      H        0.95370    0.56080    0.97950    1.000
    C49      C        0.95498    0.51307    0.09930    1.000
    C50      C        0.89772    0.58542    0.31250    1.000
    C51      C        0.87190    0.57375    0.41250    1.000
    H22      H        0.86200    0.55280    0.44500    1.000
    C52      C        0.86086    0.59345    0.46390    1.000
    H23      H        0.84400    0.58550    0.53330    1.000
    C53      C        0.87382    0.62389    0.41640    1.000
    C54      C        0.90017    0.63612    0.31260    1.000
    C55      C        0.91186    0.61703    0.26730    1.000
    H24      H        0.92980    0.62540    0.20440    1.000
    C56      C        0.85917    0.64238    0.47820    1.000
    K5       K        0.57912    0.83797    0.09233    1.000
    Pr5      Pr       0.65711    0.83855    0.78428    1.000
    S9       S        0.57473    0.81829    0.72567    1.000
    S10      S        0.58620    0.00887    0.57034    1.000
    O41      O        0.63691    0.83866    0.52393    1.000
    O42      O        0.62113    0.84169    0.28753    1.000
    O43      O        0.60208    0.82597    0.82593    1.000
    O44      O        0.54739    0.81197    0.82493    1.000
    O45      O        0.56902    0.79458    0.61183    1.000
    O46      O        0.52065    0.97510    0.95433    1.000
    O47      O        0.51819    0.99121    0.71713    1.000
    O48      O        0.59077    0.02945    0.70143    1.000
    O49      O        0.56402    0.00829    0.45543    1.000
    O50      O        0.61475    0.01389    0.50003    1.000
    C57      C        0.60467    0.86280    0.49073    1.000
    C58      C        0.58563    0.85393    0.62313    1.000
    C59      C        0.57211    0.87151    0.67183    1.000
    H25      H        0.55927    0.86513    0.75983    1.000
    C60      C        0.57738    0.89887    0.59083    1.000
    C61      C        0.59527    0.90654    0.45613    1.000
    H26      H        0.59837    0.92393    0.39803    1.000
    C62      C        0.60869    0.88866    0.40483    1.000
    H27      H        0.62037    0.89413    0.31283    1.000
    C63      C        0.62165    0.84640    0.43263    1.000
    C64      C        0.56439    0.91875    0.64583    1.000
    C65      C        0.53857    0.90708    0.74583    1.000
    H28      H        0.52867    0.88613    0.77833    1.000
    C66      C        0.52753    0.92678    0.79723    1.000
    H29      H        0.51067    0.91883    0.86663    1.000
    C67      C        0.54049    0.95722    0.74973    1.000
    C68      C        0.56684    0.96945    0.64593    1.000
    C69      C        0.57853    0.95036    0.60063    1.000
    H30      H        0.59647    0.95873    0.53773    1.000
    C70      C        0.52584    0.97571    0.81153    1.000
    K6       K        0.24578    0.17131    0.42567    1.000
    Pr6      Pr       0.32377    0.17189    0.11762    1.000
    S11      S        0.24139    0.15163    0.05901    1.000
    S12      S        0.25286    0.34221    0.90368    1.000
    O51      O        0.30357    0.17200    0.85727    1.000
    O52      O        0.28779    0.17503    0.62087    1.000
    O53      O        0.26874    0.15931    0.15927    1.000
    O54      O        0.21405    0.14531    0.15827    1.000
    O55      O        0.23568    0.12792    0.94517    1.000
    O56      O        0.18731    0.30844    0.28767    1.000
    O57      O        0.18485    0.32455    0.05047    1.000
    O58      O        0.25743    0.36279    0.03477    1.000
    O59      O        0.23068    0.34163    0.78877    1.000
    O60      O        0.28141    0.34723    0.83337    1.000
    C71      C        0.27133    0.19614    0.82407    1.000
    C72      C        0.25229    0.18727    0.95647    1.000
    C73      C        0.23877    0.20485    0.00517    1.000
    H31      H        0.22593    0.19847    0.09317    1.000
    C74      C        0.24404    0.23221    0.92417    1.000
    C75      C        0.26193    0.23988    0.78947    1.000
    H32      H        0.26503    0.25727    0.73137    1.000
    C76      C        0.27535    0.22200    0.73817    1.000
    H33      H        0.28703    0.22747    0.64617    1.000
    C77      C        0.28831    0.17974    0.76597    1.000
    C78      C        0.23105    0.25209    0.97917    1.000
    C79      C        0.20523    0.24042    0.07917    1.000
    H34      H        0.19533    0.21947    0.11167    1.000
    C80      C        0.19419    0.26012    0.13057    1.000
    H35      H        0.17733    0.25217    0.19997    1.000
    C81      C        0.20715    0.29056    0.08307    1.000
    C82      C        0.23350    0.30279    0.97927    1.000
    C83      C        0.24519    0.28370    0.93397    1.000
    H36      H        0.26313    0.29207    0.87107    1.000
    C84      C        0.19250    0.30905    0.14487    1.000
    K7       K        0.49536    0.40781    0.75900    1.000
    Pr7      Pr       0.49478    0.48522    0.45095    1.000
    S13      S        0.51504    0.42310    0.39234    1.000
    S14      S        0.32446    0.24399    0.23701    1.000
    O61      O        0.49467    0.46491    0.19060    1.000
    O62      O        0.49164    0.44610    0.95420    1.000
    O63      O        0.50736    0.44277    0.49260    1.000
    O64      O        0.52136    0.40208    0.49160    1.000
    O65      O        0.53875    0.44110    0.27850    1.000
    O66      O        0.35823    0.21221    0.62100    1.000
    O67      O        0.34212    0.19364    0.38380    1.000
    O68      O        0.30388    0.22798    0.36810    1.000
    O69      O        0.32504    0.22239    0.12210    1.000
    O70      O        0.31944    0.26752    0.16670    1.000
    C85      C        0.47053    0.40853    0.15740    1.000
    C86      C        0.47940    0.39836    0.28980    1.000
    C87      C        0.46182    0.36726    0.33850    1.000
    H37      H        0.46820    0.36080    0.42650    1.000
    C88      C        0.43446    0.34517    0.25750    1.000
    C89      C        0.42679    0.35539    0.12280    1.000
    H38      H        0.40940    0.34110    0.06470    1.000
    C90      C        0.44467    0.38669    0.07150    1.000
    H39      H        0.43920    0.39290    0.97950    1.000
    C91      C        0.48693    0.44191    0.09930    1.000
    C92      C        0.41458    0.31230    0.31250    1.000
    C93      C        0.42625    0.29815    0.41250    1.000
    H40      H        0.44720    0.30920    0.44500    1.000
    C94      C        0.40655    0.26741    0.46390    1.000
    H41      H        0.41450    0.25850    0.53330    1.000
    C95      C        0.37611    0.24993    0.41640    1.000
    C96      C        0.36388    0.26405    0.31260    1.000
    C97      C        0.38297    0.29483    0.26730    1.000
    H42      H        0.37460    0.30440    0.20440    1.000
    C98      C        0.35762    0.21679    0.47820    1.000
    K8       K        0.16203    0.74114    0.09233    1.000
    Pr8      Pr       0.16145    0.81855    0.78428    1.000
    S15      S        0.18171    0.75643    0.72567    1.000
    S16      S        0.99113    0.57732    0.57034    1.000
    O71      O        0.16134    0.79824    0.52393    1.000
    O72      O        0.15831    0.77943    0.28753    1.000
    O73      O        0.17403    0.77610    0.82593    1.000
    O74      O        0.18803    0.73541    0.82493    1.000
    O75      O        0.20542    0.77443    0.61183    1.000
    O76      O        0.02490    0.54554    0.95433    1.000
    O77      O        0.00879    0.52697    0.71713    1.000
    O78      O        0.97055    0.56131    0.70143    1.000
    O79      O        0.99171    0.55572    0.45543    1.000
    O80      O        0.98611    0.60085    0.50003    1.000
    C99      C        0.13720    0.74186    0.49073    1.000
    C100     C        0.14607    0.73169    0.62313    1.000
    C101     C        0.12849    0.70059    0.67183    1.000
    H43      H        0.13487    0.69413    0.75983    1.000
    C102     C        0.10113    0.67850    0.59083    1.000
    C103     C        0.09346    0.68872    0.45613    1.000
    H44      H        0.07607    0.67443    0.39803    1.000
    C104     C        0.11134    0.72002    0.40483    1.000
    H45      H        0.10587    0.72623    0.31283    1.000
    C105     C        0.15360    0.77524    0.43263    1.000
    C106     C        0.08125    0.64563    0.64583    1.000
    C107     C        0.09292    0.63148    0.74583    1.000
    H46      H        0.11387    0.64253    0.77833    1.000
    C108     C        0.07322    0.60074    0.79723    1.000
    H47      H        0.08117    0.59183    0.86663    1.000
    C109     C        0.04278    0.58326    0.74973    1.000
    C110     C        0.03055    0.59738    0.64593    1.000
    C111     C        0.04964    0.62816    0.60063    1.000
    H48      H        0.04127    0.63773    0.53773    1.000
    C112     C        0.02429    0.55012    0.81153    1.000
    K9       K        0.82869    0.07448    0.42567    1.000
    Pr9      Pr       0.82811    0.15189    0.11762    1.000
    S17      S        0.84837    0.08977    0.05901    1.000
    S18      S        0.65779    0.91066    0.90368    1.000
    O81      O        0.82800    0.13158    0.85727    1.000
    O82      O        0.82497    0.11277    0.62087    1.000
    O83      O        0.84069    0.10944    0.15927    1.000
    O84      O        0.85469    0.06875    0.15827    1.000
    O85      O        0.87208    0.10777    0.94517    1.000
    O86      O        0.69156    0.87888    0.28767    1.000
    O87      O        0.67545    0.86031    0.05047    1.000
    O88      O        0.63721    0.89465    0.03477    1.000
    O89      O        0.65837    0.88906    0.78877    1.000
    O90      O        0.65277    0.93419    0.83337    1.000
    C113     C        0.80386    0.07520    0.82407    1.000
    C114     C        0.81273    0.06503    0.95647    1.000
    C115     C        0.79515    0.03393    0.00517    1.000
    H49      H        0.80153    0.02747    0.09317    1.000
    C116     C        0.76779    0.01184    0.92417    1.000
    C117     C        0.76012    0.02206    0.78947    1.000
    H50      H        0.74273    0.00777    0.73137    1.000
    C118     C        0.77800    0.05336    0.73817    1.000
    H51      H        0.77253    0.05957    0.64617    1.000
    C119     C        0.82026    0.10858    0.76597    1.000
    C120     C        0.74791    0.97897    0.97917    1.000
    C121     C        0.75958    0.96482    0.07917    1.000
    H52      H        0.78053    0.97587    0.11167    1.000
    C122     C        0.73988    0.93408    0.13057    1.000
    H53      H        0.74783    0.92517    0.19997    1.000
    C123     C        0.70944    0.91660    0.08307    1.000
    C124     C        0.69721    0.93072    0.97927    1.000
    C125     C        0.71630    0.96150    0.93397    1.000
    H54      H        0.70793    0.97107    0.87107    1.000
    C126     C        0.69095    0.88346    0.14487    1.000
    K10      K        0.91245    0.40781    0.25900    1.000
    Pr10     Pr       0.99044    0.48522    0.95095    1.000
    S19      S        0.90806    0.42310    0.89234    1.000
    S20      S        0.91953    0.24399    0.73701    1.000
    O91      O        0.97024    0.46491    0.69060    1.000
    O92      O        0.95446    0.44610    0.45420    1.000
    O93      O        0.93541    0.44277    0.99260    1.000
    O94      O        0.88072    0.40208    0.99160    1.000
    O95      O        0.90235    0.44110    0.77850    1.000
    O96      O        0.85398    0.21221    0.12100    1.000
    O97      O        0.85152    0.19364    0.88380    1.000
    O98      O        0.92410    0.22798    0.86810    1.000
    O99      O        0.89735    0.22239    0.62210    1.000
    O100     O        0.94808    0.26752    0.66670    1.000
    C127     C        0.93800    0.40853    0.65740    1.000
    C128     C        0.91896    0.39836    0.78980    1.000
    C129     C        0.90544    0.36726    0.83850    1.000
    H55      H        0.89260    0.36080    0.92650    1.000
    C130     C        0.91071    0.34517    0.75750    1.000
    C131     C        0.92860    0.35539    0.62280    1.000
    H56      H        0.93170    0.34110    0.56470    1.000
    C132     C        0.94202    0.38669    0.57150    1.000
    H57      H        0.95370    0.39290    0.47950    1.000
    C133     C        0.95498    0.44191    0.59930    1.000
    C134     C        0.89772    0.31230    0.81250    1.000
    C135     C        0.87190    0.29815    0.91250    1.000
    H58      H        0.86200    0.30920    0.94500    1.000
    C136     C        0.86086    0.26741    0.96390    1.000
    H59      H        0.84400    0.25850    0.03330    1.000
    C137     C        0.87382    0.24993    0.91640    1.000
    C138     C        0.90017    0.26405    0.81260    1.000
    C139     C        0.91186    0.29483    0.76730    1.000
    H60      H        0.92980    0.30440    0.70440    1.000
    C140     C        0.85917    0.21679    0.97820    1.000
    K11      K        0.57912    0.74114    0.59233    1.000
    Pr11     Pr       0.65711    0.81855    0.28428    1.000
    S21      S        0.57473    0.75643    0.22567    1.000
    S22      S        0.58620    0.57732    0.07034    1.000
    O101     O        0.63691    0.79824    0.02393    1.000
    O102     O        0.62113    0.77943    0.78753    1.000
    O103     O        0.60208    0.77610    0.32593    1.000
    O104     O        0.54739    0.73541    0.32493    1.000
    O105     O        0.56902    0.77443    0.11183    1.000
    O106     O        0.52065    0.54554    0.45433    1.000
    O107     O        0.51819    0.52697    0.21713    1.000
    O108     O        0.59077    0.56131    0.20143    1.000
    O109     O        0.56402    0.55572    0.95543    1.000
    O110     O        0.61475    0.60085    0.00003    1.000
    C141     C        0.60467    0.74186    0.99073    1.000
    C142     C        0.58563    0.73169    0.12313    1.000
    C143     C        0.57211    0.70059    0.17183    1.000
    H61      H        0.55927    0.69413    0.25983    1.000
    C144     C        0.57738    0.67850    0.09083    1.000
    C145     C        0.59527    0.68872    0.95613    1.000
    H62      H        0.59837    0.67443    0.89803    1.000
    C146     C        0.60869    0.72002    0.90483    1.000
    H63      H        0.62037    0.72623    0.81283    1.000
    C147     C        0.62165    0.77524    0.93263    1.000
    C148     C        0.56439    0.64563    0.14583    1.000
    C149     C        0.53857    0.63148    0.24583    1.000
    H64      H        0.52867    0.64253    0.27833    1.000
    C150     C        0.52753    0.60074    0.29723    1.000
    H65      H        0.51067    0.59183    0.36663    1.000
    C151     C        0.54049    0.58326    0.24973    1.000
    C152     C        0.56684    0.59738    0.14593    1.000
    C153     C        0.57853    0.62816    0.10063    1.000
    H66      H        0.59647    0.63773    0.03773    1.000
    C154     C        0.52584    0.55012    0.31153    1.000
    K12      K        0.24578    0.07448    0.92567    1.000
    Pr12     Pr       0.32377    0.15189    0.61762    1.000
    S23      S        0.24139    0.08977    0.55901    1.000
    S24      S        0.25286    0.91066    0.40368    1.000
    O111     O        0.30357    0.13158    0.35727    1.000
    O112     O        0.28779    0.11277    0.12087    1.000
    O113     O        0.26874    0.10944    0.65927    1.000
    O114     O        0.21405    0.06875    0.65827    1.000
    O115     O        0.23568    0.10777    0.44517    1.000
    O116     O        0.18731    0.87888    0.78767    1.000
    O117     O        0.18485    0.86031    0.55047    1.000
    O118     O        0.25743    0.89465    0.53477    1.000
    O119     O        0.23068    0.88906    0.28877    1.000
    O120     O        0.28141    0.93419    0.33337    1.000
    C155     C        0.27133    0.07520    0.32407    1.000
    C156     C        0.25229    0.06503    0.45647    1.000
    C157     C        0.23877    0.03393    0.50517    1.000
    H67      H        0.22593    0.02747    0.59317    1.000
    C158     C        0.24404    0.01184    0.42417    1.000
    C159     C        0.26193    0.02206    0.28947    1.000
    H68      H        0.26503    0.00777    0.23137    1.000
    C160     C        0.27535    0.05336    0.23817    1.000
    H69      H        0.28703    0.05957    0.14617    1.000
    C161     C        0.28831    0.10858    0.26597    1.000
    C162     C        0.23105    0.97897    0.47917    1.000
    C163     C        0.20523    0.96482    0.57917    1.000
    H70      H        0.19533    0.97587    0.61167    1.000
    C164     C        0.19419    0.93408    0.63057    1.000
    H71      H        0.17733    0.92517    0.69997    1.000
    C165     C        0.20715    0.91660    0.58307    1.000
    C166     C        0.23350    0.93072    0.47927    1.000
    C167     C        0.24519    0.96150    0.43397    1.000
    H72      H        0.26313    0.97107    0.37107    1.000
    C168     C        0.19250    0.88346    0.64487    1.000
    K13      K        0.49536    0.08755    0.25900    1.000
    Pr13     Pr       0.49478    0.00956    0.95095    1.000
    S25      S        0.51504    0.09194    0.89234    1.000
    S26      S        0.32446    0.08047    0.73701    1.000
    O121     O        0.49467    0.02976    0.69060    1.000
    O122     O        0.49164    0.04554    0.45420    1.000
    O123     O        0.50736    0.06459    0.99260    1.000
    O124     O        0.52136    0.11928    0.99160    1.000
    O125     O        0.53875    0.09765    0.77850    1.000
    O126     O        0.35823    0.14602    0.12100    1.000
    O127     O        0.34212    0.14848    0.88380    1.000
    O128     O        0.30388    0.07590    0.86810    1.000
    O129     O        0.32504    0.10265    0.62210    1.000
    O130     O        0.31944    0.05192    0.66670    1.000
    C169     C        0.47053    0.06200    0.65740    1.000
    C170     C        0.47940    0.08104    0.78980    1.000
    C171     C        0.46182    0.09456    0.83850    1.000
    H73      H        0.46820    0.10740    0.92650    1.000
    C172     C        0.43446    0.08929    0.75750    1.000
    C173     C        0.42679    0.07140    0.62280    1.000
    H74      H        0.40940    0.06830    0.56470    1.000
    C174     C        0.44467    0.05798    0.57150    1.000
    H75      H        0.43920    0.04630    0.47950    1.000
    C175     C        0.48693    0.04502    0.59930    1.000
    C176     C        0.41458    0.10228    0.81250    1.000
    C177     C        0.42625    0.12810    0.91250    1.000
    H76      H        0.44720    0.13800    0.94500    1.000
    C178     C        0.40655    0.13914    0.96390    1.000
    H77      H        0.41450    0.15600    0.03330    1.000
    C179     C        0.37611    0.12618    0.91640    1.000
    C180     C        0.36388    0.09983    0.81260    1.000
    C181     C        0.38297    0.08814    0.76730    1.000
    H78      H        0.37460    0.07020    0.70440    1.000
    C182     C        0.35762    0.14083    0.97820    1.000
    K14      K        0.16203    0.42088    0.59233    1.000
    Pr14     Pr       0.16145    0.34289    0.28428    1.000
    S27      S        0.18171    0.42527    0.22567    1.000
    S28      S        0.99113    0.41380    0.07034    1.000
    O131     O        0.16134    0.36309    0.02393    1.000
    O132     O        0.15831    0.37887    0.78753    1.000
    O133     O        0.17403    0.39792    0.32593    1.000
    O134     O        0.18803    0.45261    0.32493    1.000
    O135     O        0.20542    0.43098    0.11183    1.000
    O136     O        0.02490    0.47935    0.45433    1.000
    O137     O        0.00879    0.48181    0.21713    1.000
    O138     O        0.97055    0.40923    0.20143    1.000
    O139     O        0.99171    0.43598    0.95543    1.000
    O140     O        0.98611    0.38525    0.00003    1.000
    C183     C        0.13720    0.39533    0.99073    1.000
    C184     C        0.14607    0.41437    0.12313    1.000
    C185     C        0.12849    0.42789    0.17183    1.000
    H79      H        0.13487    0.44073    0.25983    1.000
    C186     C        0.10113    0.42262    0.09083    1.000
    C187     C        0.09346    0.40473    0.95613    1.000
    H80      H        0.07607    0.40163    0.89803    1.000
    C188     C        0.11134    0.39131    0.90483    1.000
    H81      H        0.10587    0.37963    0.81283    1.000
    C189     C        0.15360    0.37835    0.93263    1.000
    C190     C        0.08125    0.43561    0.14583    1.000
    C191     C        0.09292    0.46143    0.24583    1.000
    H82      H        0.11387    0.47133    0.27833    1.000
    C192     C        0.07322    0.47247    0.29723    1.000
    H83      H        0.08117    0.48933    0.36663    1.000
    C193     C        0.04278    0.45951    0.24973    1.000
    C194     C        0.03055    0.43316    0.14593    1.000
    C195     C        0.04964    0.42147    0.10063    1.000
    H84      H        0.04127    0.40353    0.03773    1.000
    C196     C        0.02429    0.47416    0.31153    1.000
    K15      K        0.82869    0.75422    0.92567    1.000
    Pr15     Pr       0.82811    0.67623    0.61762    1.000
    S29      S        0.84837    0.75861    0.55901    1.000
    S30      S        0.65779    0.74714    0.40368    1.000
    O141     O        0.82800    0.69643    0.35727    1.000
    O142     O        0.82497    0.71221    0.12087    1.000
    O143     O        0.84069    0.73126    0.65927    1.000
    O144     O        0.85469    0.78595    0.65827    1.000
    O145     O        0.87208    0.76432    0.44517    1.000
    O146     O        0.69156    0.81269    0.78767    1.000
    O147     O        0.67545    0.81515    0.55047    1.000
    O148     O        0.63721    0.74257    0.53477    1.000
    O149     O        0.65837    0.76932    0.28877    1.000
    O150     O        0.65277    0.71859    0.33337    1.000
    C197     C        0.80386    0.72867    0.32407    1.000
    C198     C        0.81273    0.74771    0.45647    1.000
    C199     C        0.79515    0.76123    0.50517    1.000
    H85      H        0.80153    0.77407    0.59317    1.000
    C200     C        0.76779    0.75596    0.42417    1.000
    C201     C        0.76012    0.73807    0.28947    1.000
    H86      H        0.74273    0.73497    0.23137    1.000
    C202     C        0.77800    0.72465    0.23817    1.000
    H87      H        0.77253    0.71297    0.14617    1.000
    C203     C        0.82026    0.71169    0.26597    1.000
    C204     C        0.74791    0.76895    0.47917    1.000
    C205     C        0.75958    0.79477    0.57917    1.000
    H88      H        0.78053    0.80467    0.61167    1.000
    C206     C        0.73988    0.80581    0.63057    1.000
    H89      H        0.74783    0.82267    0.69997    1.000
    C207     C        0.70944    0.79285    0.58307    1.000
    C208     C        0.69721    0.76650    0.47927    1.000
    C209     C        0.71630    0.75481    0.43397    1.000
    H90      H        0.70793    0.73687    0.37107    1.000
    C210     C        0.69095    0.80750    0.64487    1.000
    K16      K        0.59219    0.50464    0.25900    1.000
    Pr16     Pr       0.51478    0.50522    0.95095    1.000
    S31      S        0.57690    0.48496    0.89234    1.000
    S32      S        0.75601    0.67554    0.73701    1.000
    O151     O        0.53509    0.50533    0.69060    1.000
    O152     O        0.55390    0.50836    0.45420    1.000
    O153     O        0.55723    0.49264    0.99260    1.000
    O154     O        0.59792    0.47864    0.99160    1.000
    O155     O        0.55890    0.46125    0.77850    1.000
    O156     O        0.78779    0.64177    0.12100    1.000
    O157     O        0.80636    0.65788    0.88380    1.000
    O158     O        0.77202    0.69612    0.86810    1.000
    O159     O        0.77761    0.67496    0.62210    1.000
    O160     O        0.73248    0.68056    0.66670    1.000
    C211     C        0.59147    0.52947    0.65740    1.000
    C212     C        0.60164    0.52060    0.78980    1.000
    C213     C        0.63274    0.53818    0.83850    1.000
    H91      H        0.63920    0.53180    0.92650    1.000
    C214     C        0.65483    0.56554    0.75750    1.000
    C215     C        0.64461    0.57321    0.62280    1.000
    H92      H        0.65890    0.59060    0.56470    1.000
    C216     C        0.61331    0.55533    0.57150    1.000
    H93      H        0.60710    0.56080    0.47950    1.000
    C217     C        0.55809    0.51307    0.59930    1.000
    C218     C        0.68770    0.58542    0.81250    1.000
    C219     C        0.70185    0.57375    0.91250    1.000
    H94      H        0.69080    0.55280    0.94500    1.000
    C220     C        0.73259    0.59345    0.96390    1.000
    H95      H        0.74150    0.58550    0.03330    1.000
    C221     C        0.75007    0.62389    0.91640    1.000
    C222     C        0.73595    0.63612    0.81260    1.000
    C223     C        0.70517    0.61703    0.76730    1.000
    H96      H        0.69560    0.62540    0.70440    1.000
    C224     C        0.78321    0.64238    0.97820    1.000
    K17      K        0.25886    0.83797    0.59233    1.000
    Pr17     Pr       0.18145    0.83855    0.28428    1.000
    S33      S        0.24357    0.81829    0.22567    1.000
    S34      S        0.42268    0.00887    0.07034    1.000
    O161     O        0.20176    0.83866    0.02393    1.000
    O162     O        0.22057    0.84169    0.78753    1.000
    O163     O        0.22390    0.82597    0.32593    1.000
    O164     O        0.26459    0.81197    0.32493    1.000
    O165     O        0.22557    0.79458    0.11183    1.000
    O166     O        0.45446    0.97510    0.45433    1.000
    O167     O        0.47303    0.99121    0.21713    1.000
    O168     O        0.43869    0.02945    0.20143    1.000
    O169     O        0.44428    0.00829    0.95543    1.000
    O170     O        0.39915    0.01389    0.00003    1.000
    C225     C        0.25814    0.86280    0.99073    1.000
    C226     C        0.26831    0.85393    0.12313    1.000
    C227     C        0.29941    0.87151    0.17183    1.000
    H97      H        0.30587    0.86513    0.25983    1.000
    C228     C        0.32150    0.89887    0.09083    1.000
    C229     C        0.31128    0.90654    0.95613    1.000
    H98      H        0.32557    0.92393    0.89803    1.000
    C230     C        0.27998    0.88866    0.90483    1.000
    H99      H        0.27377    0.89413    0.81283    1.000
    C231     C        0.22476    0.84640    0.93263    1.000
    C232     C        0.35437    0.91875    0.14583    1.000
    C233     C        0.36852    0.90708    0.24583    1.000
    H100     H        0.35747    0.88613    0.27833    1.000
    C234     C        0.39926    0.92678    0.29723    1.000
    H101     H        0.40817    0.91883    0.36663    1.000
    C235     C        0.41674    0.95722    0.24973    1.000
    C236     C        0.40262    0.96945    0.14593    1.000
    C237     C        0.37184    0.95036    0.10063    1.000
    H102     H        0.36227    0.95873    0.03773    1.000
    C238     C        0.44988    0.97571    0.31153    1.000
    K18      K        0.92552    0.17131    0.92567    1.000
    Pr18     Pr       0.84811    0.17189    0.61762    1.000
    S35      S        0.91023    0.15163    0.55901    1.000
    S36      S        0.08934    0.34221    0.40368    1.000
    O171     O        0.86842    0.17200    0.35727    1.000
    O172     O        0.88723    0.17503    0.12087    1.000
    O173     O        0.89056    0.15931    0.65927    1.000
    O174     O        0.93125    0.14531    0.65827    1.000
    O175     O        0.89223    0.12792    0.44517    1.000
    O176     O        0.12112    0.30844    0.78767    1.000
    O177     O        0.13969    0.32455    0.55047    1.000
    O178     O        0.10535    0.36279    0.53477    1.000
    O179     O        0.11094    0.34163    0.28877    1.000
    O180     O        0.06581    0.34723    0.33337    1.000
    C239     C        0.92480    0.19614    0.32407    1.000
    C240     C        0.93497    0.18727    0.45647    1.000
    C241     C        0.96607    0.20485    0.50517    1.000
    H103     H        0.97253    0.19847    0.59317    1.000
    C242     C        0.98816    0.23221    0.42417    1.000
    C243     C        0.97794    0.23988    0.28947    1.000
    H104     H        0.99223    0.25727    0.23137    1.000
    C244     C        0.94664    0.22200    0.23817    1.000
    H105     H        0.94043    0.22747    0.14617    1.000
    C245     C        0.89142    0.17974    0.26597    1.000
    C246     C        0.02103    0.25209    0.47917    1.000
    C247     C        0.03518    0.24042    0.57917    1.000
    H106     H        0.02413    0.21947    0.61167    1.000
    C248     C        0.06592    0.26012    0.63057    1.000
    H107     H        0.07483    0.25217    0.69997    1.000
    C249     C        0.08340    0.29056    0.58307    1.000
    C250     C        0.06928    0.30279    0.47927    1.000
    C251     C        0.03850    0.28370    0.43397    1.000
    H108     H        0.02893    0.29207    0.37107    1.000
    C252     C        0.11654    0.30905    0.64487    1.000
