# CIF file generated by openbabel 3.1.0, see https://openbabel.org
data_I
_chemical_name_common 'image0'
_cell_length_a 13.1317
_cell_length_b 12.1256
_cell_length_c 7.8119
_cell_angle_alpha 90
_cell_angle_beta 99.734
_cell_angle_gamma 90
_space_group_name_H-M_alt 'P 1'
_space_group_name_Hall 'P 1'
loop_
    _symmetry_equiv_pos_as_xyz
    x,y,z
loop_
    _atom_site_label
    _atom_site_type_symbol
    _atom_site_fract_x
    _atom_site_fract_y
    _atom_site_fract_z
    _atom_site_occupancy
    Mn1      Mn       0.73682    0.48229    0.90140    1.000
    O1       O        0.13662    0.09007    0.48080    1.000
    N1       N        0.33549    0.14880    0.58390    1.000
    C1       C        0.16100    0.18730    0.43790    1.000
    O2       O        0.10638    0.24991    0.33490    1.000
    C2       C        0.26820    0.22810    0.51900    1.000
    O3       O        0.15329    0.44222    0.57720    1.000
    C3       C        0.29490    0.33910    0.52340    1.000
    O4       O        0.21979    0.48848    0.34470    1.000
    C4       C        0.39580    0.36750    0.59570    1.000
    H1       H        0.41400    0.44000    0.60600    1.000
    O5       O        0.59326    0.41408    0.77980    1.000
    C5       C        0.46610    0.28590    0.66070    1.000
    O6       O        0.63734    0.23609    0.78610    1.000
    C6       C        0.43240    0.17700    0.65100    1.000
    H2       H        0.47500    0.11800    0.68700    1.000
    C7       C        0.21610    0.42890    0.47240    1.000
    C8       C        0.57470    0.31330    0.74810    1.000
    Mn2      Mn       0.26318    0.98229    0.59860    1.000
    O7       O        0.86338    0.59007    0.01920    1.000
    N2       N        0.66451    0.64880    0.91610    1.000
    C9       C        0.83900    0.68730    0.06210    1.000
    O8       O        0.89362    0.74991    0.16510    1.000
    C10      C        0.73180    0.72810    0.98100    1.000
    O9       O        0.84671    0.94222    0.92280    1.000
    C11      C        0.70510    0.83910    0.97660    1.000
    O10      O        0.78021    0.98848    0.15530    1.000
    C12      C        0.60420    0.86750    0.90430    1.000
    H3       H        0.58600    0.94000    0.89400    1.000
    O11      O        0.40674    0.91408    0.72020    1.000
    C13      C        0.53390    0.78590    0.83930    1.000
    O12      O        0.36266    0.73609    0.71390    1.000
    C14      C        0.56760    0.67700    0.84900    1.000
    H4       H        0.52500    0.61800    0.81300    1.000
    C15      C        0.78390    0.92890    0.02760    1.000
    C16      C        0.42530    0.81330    0.75190    1.000
    Mn3      Mn       0.26318    0.51771    0.09860    1.000
    O13      O        0.86338    0.90993    0.51920    1.000
    N3       N        0.66451    0.85120    0.41610    1.000
    C17      C        0.83900    0.81270    0.56210    1.000
    O14      O        0.89362    0.75009    0.66510    1.000
    C18      C        0.73180    0.77190    0.48100    1.000
    O15      O        0.84671    0.55778    0.42280    1.000
    C19      C        0.70510    0.66090    0.47660    1.000
    O16      O        0.78021    0.51152    0.65530    1.000
    C20      C        0.60420    0.63250    0.40430    1.000
    H5       H        0.58600    0.56000    0.39400    1.000
    O17      O        0.40674    0.58592    0.22020    1.000
    C21      C        0.53390    0.71410    0.33930    1.000
    O18      O        0.36266    0.76391    0.21390    1.000
    C22      C        0.56760    0.82300    0.34900    1.000
    H6       H        0.52500    0.88200    0.31300    1.000
    C23      C        0.78390    0.57110    0.52760    1.000
    C24      C        0.42530    0.68670    0.25190    1.000
    Mn4      Mn       0.73682    0.01771    0.40140    1.000
    O19      O        0.13662    0.40993    0.98080    1.000
    N4       N        0.33549    0.35120    0.08390    1.000
    C25      C        0.16100    0.31270    0.93790    1.000
    O20      O        0.10638    0.25009    0.83490    1.000
    C26      C        0.26820    0.27190    0.01900    1.000
    O21      O        0.15329    0.05778    0.07720    1.000
    C27      C        0.29490    0.16090    0.02340    1.000
    O22      O        0.21979    0.01152    0.84470    1.000
    C28      C        0.39580    0.13250    0.09570    1.000
    H7       H        0.41400    0.06000    0.10600    1.000
    O23      O        0.59326    0.08592    0.27980    1.000
    C29      C        0.46610    0.21410    0.16070    1.000
    O24      O        0.63734    0.26391    0.28610    1.000
    C30      C        0.43240    0.32300    0.15100    1.000
    H8       H        0.47500    0.38200    0.18700    1.000
    C31      C        0.21610    0.07110    0.97240    1.000
    C32      C        0.57470    0.18670    0.24810    1.000
    Mn5      Mn       0.00000    0.50000    0.50000    1.000
    Mn6      Mn       0.00000    0.00000    0.00000    1.000
