# CIF file generated by openbabel 3.1.0, see https://openbabel.org
data_I
_chemical_name_common 'image0'
_cell_length_a 5.2352
_cell_length_b 15.437
_cell_length_c 17.975
_cell_angle_alpha 90
_cell_angle_beta 91.786
_cell_angle_gamma 90
_space_group_name_H-M_alt 'P 1'
_space_group_name_Hall 'P 1'
loop_
    _symmetry_equiv_pos_as_xyz
    x,y,z
loop_
    _atom_site_label
    _atom_site_type_symbol
    _atom_site_fract_x
    _atom_site_fract_y
    _atom_site_fract_z
    _atom_site_occupancy
    Zn1      Zn       0.06150    0.76500    0.69878    1.000
    Zn2      Zn       0.56730    0.89155    0.74338    1.000
    Zn3      Zn       0.42480    0.59512    0.69630    1.000
    Zn4      Zn       0.89050    0.72522    0.93184    1.000
    P1       P        0.53930    0.76250    0.60560    1.000
    P2       P        0.07330    0.88570    0.83850    1.000
    P3       P        0.93930    0.59980    0.79400    1.000
    O1       O        0.82480    0.77810    0.61670    1.000
    O2       O        0.10250    0.64390    0.73270    1.000
    O3       O        0.40120    0.80870    0.67110    1.000
    O4       O        0.91710    0.85150    0.76800    1.000
    O5       O        0.00380    0.50390    0.79100    1.000
    O6       O        0.35220    0.86280    0.82700    1.000
    O7       O        0.02800    0.98270    0.84510    1.000
    O8       O        0.65910    0.61930    0.77840    1.000
    O9       O        0.46780    0.66860    0.60780    1.000
    O10      O        0.98410    0.84170    0.90820    1.000
    O11      O        0.02400    0.63580    0.86990    1.000
    O12      O        0.45110    0.80580    0.53380    1.000
    O13      O        0.51180    0.72540    0.90670    1.000
    H1       H        0.45320    0.67690    0.91380    1.000
    Zn5      Zn       0.43850    0.26500    0.80122    1.000
    Zn6      Zn       0.93270    0.39155    0.75662    1.000
    Zn7      Zn       0.07520    0.09512    0.80370    1.000
    Zn8      Zn       0.60950    0.22522    0.56816    1.000
    P4       P        0.96070    0.26250    0.89440    1.000
    P5       P        0.42670    0.38570    0.66150    1.000
    P6       P        0.56070    0.09980    0.70600    1.000
    O14      O        0.67520    0.27810    0.88330    1.000
    O15      O        0.39750    0.14390    0.76730    1.000
    O16      O        0.09880    0.30870    0.82890    1.000
    O17      O        0.58290    0.35150    0.73200    1.000
    O18      O        0.49620    0.00390    0.70900    1.000
    O19      O        0.14780    0.36280    0.67300    1.000
    O20      O        0.47200    0.48270    0.65490    1.000
    O21      O        0.84090    0.11930    0.72160    1.000
    O22      O        0.03220    0.16860    0.89220    1.000
    O23      O        0.51590    0.34170    0.59180    1.000
    O24      O        0.47600    0.13580    0.63010    1.000
    O25      O        0.04890    0.30580    0.96620    1.000
    O26      O        0.98820    0.22540    0.59330    1.000
    H2       H        0.04680    0.17690    0.58620    1.000
    Zn9      Zn       0.93850    0.23500    0.30122    1.000
    Zn10     Zn       0.43270    0.10845    0.25662    1.000
    Zn11     Zn       0.57520    0.40488    0.30370    1.000
    Zn12     Zn       0.10950    0.27478    0.06816    1.000
    P7       P        0.46070    0.23750    0.39440    1.000
    P8       P        0.92670    0.11430    0.16150    1.000
    P9       P        0.06070    0.40020    0.20600    1.000
    O27      O        0.17520    0.22190    0.38330    1.000
    O28      O        0.89750    0.35610    0.26730    1.000
    O29      O        0.59880    0.19130    0.32890    1.000
    O30      O        0.08290    0.14850    0.23200    1.000
    O31      O        0.99620    0.49610    0.20900    1.000
    O32      O        0.64780    0.13720    0.17300    1.000
    O33      O        0.97200    0.01730    0.15490    1.000
    O34      O        0.34090    0.38070    0.22160    1.000
    O35      O        0.53220    0.33140    0.39220    1.000
    O36      O        0.01590    0.15830    0.09180    1.000
    O37      O        0.97600    0.36420    0.13010    1.000
    O38      O        0.54890    0.19420    0.46620    1.000
    O39      O        0.48820    0.27460    0.09330    1.000
    H3       H        0.54680    0.32310    0.08620    1.000
    Zn13     Zn       0.56150    0.73500    0.19878    1.000
    Zn14     Zn       0.06730    0.60845    0.24338    1.000
    Zn15     Zn       0.92480    0.90488    0.19630    1.000
    Zn16     Zn       0.39050    0.77478    0.43184    1.000
    P10      P        0.03930    0.73750    0.10560    1.000
    P11      P        0.57330    0.61430    0.33850    1.000
    P12      P        0.43930    0.90020    0.29400    1.000
    O40      O        0.32480    0.72190    0.11670    1.000
    O41      O        0.60250    0.85610    0.23270    1.000
    O42      O        0.90120    0.69130    0.17110    1.000
    O43      O        0.41710    0.64850    0.26800    1.000
    O44      O        0.50380    0.99610    0.29100    1.000
    O45      O        0.85220    0.63720    0.32700    1.000
    O46      O        0.52800    0.51730    0.34510    1.000
    O47      O        0.15910    0.88070    0.27840    1.000
    O48      O        0.96780    0.83140    0.10780    1.000
    O49      O        0.48410    0.65830    0.40820    1.000
    O50      O        0.52400    0.86420    0.36990    1.000
    O51      O        0.95110    0.69420    0.03380    1.000
    O52      O        0.01180    0.77460    0.40670    1.000
    H4       H        0.95320    0.82310    0.41380    1.000
