# CIF file generated by openbabel 3.1.0, see https://openbabel.org
data_I
_chemical_name_common 'image0'
_cell_length_a 14.7857
_cell_length_b 16.5284
_cell_length_c 10.2302
_cell_angle_alpha 90
_cell_angle_beta 119.104
_cell_angle_gamma 90
_space_group_name_H-M_alt 'P 1'
_space_group_name_Hall 'P 1'
loop_
    _symmetry_equiv_pos_as_xyz
    x,y,z
loop_
    _atom_site_label
    _atom_site_type_symbol
    _atom_site_fract_x
    _atom_site_fract_y
    _atom_site_fract_z
    _atom_site_occupancy
    Zn1      Zn       0.04693    0.04566    0.68315    1.000
    C1       C        0.12350    0.88760    0.83770    1.000
    C2       C        0.16820    0.81170    0.88060    1.000
    C3       C        0.19800    0.81100    0.68490    1.000
    C4       C        0.15370    0.88630    0.64060    1.000
    C5       C        0.08120    0.93390    0.92350    1.000
    N1       N        0.20600    0.77270    0.80350    1.000
    N2       N        0.11540    0.92480    0.71660    1.000
    O1       O        0.09630    0.90510    0.04500    1.000
    O2       O        0.03470    0.99830    0.86560    1.000
    N3       N        0.89420    0.02250    0.51870    1.000
    N4       N        0.51340    0.66080    0.73940    1.000
    C6       C        0.84690    0.07630    0.40890    1.000
    C7       C        0.75020    0.06520    0.28810    1.000
    C8       C        0.69600    0.99420    0.27930    1.000
    C9       C        0.74380    0.93950    0.39690    1.000
    C10      C        0.84150    0.95500    0.51200    1.000
    C11      C        0.55310    0.72900    0.71830    1.000
    C12      C        0.54280    0.80220    0.77250    1.000
    C13      C        0.49070    0.80880    0.85180    1.000
    C14      C        0.44720    0.73890    0.86890    1.000
    C15      C        0.45910    0.66690    0.80980    1.000
    C16      C        0.59050    0.97850    0.14920    1.000
    C17      C        0.59220    0.90450    0.06040    1.000
    C18      C        0.48680    0.88690    0.92550    1.000
    H1       H        0.16000    0.78100    0.97000    1.000
    H2       H        0.21300    0.78100    0.62500    1.000
    H3       H        0.14900    0.90900    0.55900    1.000
    H4       H        0.61200    0.85300    0.13300    1.000
    H5       H        0.43200    0.88600    0.95300    1.000
    H6       H        0.64000    0.91200    0.04600    1.000
    H7       H        0.53000    0.97500    0.16700    1.000
    H8       H        0.55400    0.03200    0.07300    1.000
    H9       H        0.43000    0.61800    0.82000    1.000
    H10      H        0.40300    0.73400    0.92500    1.000
    H11      H        0.45800    0.92500    0.86000    1.000
    H12      H        0.56200    0.84800    0.76000    1.000
    H13      H        0.60500    0.72700    0.67800    1.000
    H14      H        0.86600    0.92100    0.58500    1.000
    H15      H        0.71000    0.88900    0.41200    1.000
    H16      H        0.72100    0.09900    0.22400    1.000
    H17      H        0.88400    0.12300    0.40800    1.000
    Zn2      Zn       0.54693    0.54566    0.68315    1.000
    C19      C        0.62350    0.38760    0.83770    1.000
    C20      C        0.66820    0.31170    0.88060    1.000
    C21      C        0.69800    0.31100    0.68490    1.000
    C22      C        0.65370    0.38630    0.64060    1.000
    C23      C        0.58120    0.43390    0.92350    1.000
    N5       N        0.70600    0.27270    0.80350    1.000
    N6       N        0.61540    0.42480    0.71660    1.000
    O3       O        0.59630    0.40510    0.04500    1.000
    O4       O        0.53470    0.49830    0.86560    1.000
    N7       N        0.39420    0.52250    0.51870    1.000
    N8       N        0.01340    0.16080    0.73940    1.000
    C24      C        0.34690    0.57630    0.40890    1.000
    C25      C        0.25020    0.56520    0.28810    1.000
    C26      C        0.19600    0.49420    0.27930    1.000
    C27      C        0.24380    0.43950    0.39690    1.000
    C28      C        0.34150    0.45500    0.51200    1.000
    C29      C        0.05310    0.22900    0.71830    1.000
    C30      C        0.04280    0.30220    0.77250    1.000
    C31      C        0.99070    0.30880    0.85180    1.000
    C32      C        0.94720    0.23890    0.86890    1.000
    C33      C        0.95910    0.16690    0.80980    1.000
    C34      C        0.09050    0.47850    0.14920    1.000
    C35      C        0.09220    0.40450    0.06040    1.000
    C36      C        0.98680    0.38690    0.92550    1.000
    H18      H        0.66000    0.28100    0.97000    1.000
    H19      H        0.71300    0.28100    0.62500    1.000
    H20      H        0.64900    0.40900    0.55900    1.000
    H21      H        0.11200    0.35300    0.13300    1.000
    H22      H        0.93200    0.38600    0.95300    1.000
    H23      H        0.14000    0.41200    0.04600    1.000
    H24      H        0.03000    0.47500    0.16700    1.000
    H25      H        0.05400    0.53200    0.07300    1.000
    H26      H        0.93000    0.11800    0.82000    1.000
    H27      H        0.90300    0.23400    0.92500    1.000
    H28      H        0.95800    0.42500    0.86000    1.000
    H29      H        0.06200    0.34800    0.76000    1.000
    H30      H        0.10500    0.22700    0.67800    1.000
    H31      H        0.36600    0.42100    0.58500    1.000
    H32      H        0.21000    0.38900    0.41200    1.000
    H33      H        0.22100    0.59900    0.22400    1.000
    H34      H        0.38400    0.62300    0.40800    1.000
    Zn3      Zn       0.04693    0.95434    0.18315    1.000
    C37      C        0.12350    0.11240    0.33770    1.000
    C38      C        0.16820    0.18830    0.38060    1.000
    C39      C        0.19800    0.18900    0.18490    1.000
    C40      C        0.15370    0.11370    0.14060    1.000
    C41      C        0.08120    0.06610    0.42350    1.000
    N9       N        0.20600    0.22730    0.30350    1.000
    N10      N        0.11540    0.07520    0.21660    1.000
    O5       O        0.09630    0.09490    0.54500    1.000
    O6       O        0.03470    0.00170    0.36560    1.000
    N11      N        0.89420    0.97750    0.01870    1.000
    N12      N        0.51340    0.33920    0.23940    1.000
    C42      C        0.84690    0.92370    0.90890    1.000
    C43      C        0.75020    0.93480    0.78810    1.000
    C44      C        0.69600    0.00580    0.77930    1.000
    C45      C        0.74380    0.06050    0.89690    1.000
    C46      C        0.84150    0.04500    0.01200    1.000
    C47      C        0.55310    0.27100    0.21830    1.000
    C48      C        0.54280    0.19780    0.27250    1.000
    C49      C        0.49070    0.19120    0.35180    1.000
    C50      C        0.44720    0.26110    0.36890    1.000
    C51      C        0.45910    0.33310    0.30980    1.000
    C52      C        0.59050    0.02150    0.64920    1.000
    C53      C        0.59220    0.09550    0.56040    1.000
    C54      C        0.48680    0.11310    0.42550    1.000
    H35      H        0.16000    0.21900    0.47000    1.000
    H36      H        0.21300    0.21900    0.12500    1.000
    H37      H        0.14900    0.09100    0.05900    1.000
    H38      H        0.61200    0.14700    0.63300    1.000
    H39      H        0.43200    0.11400    0.45300    1.000
    H40      H        0.64000    0.08800    0.54600    1.000
    H41      H        0.53000    0.02500    0.66700    1.000
    H42      H        0.55400    0.96800    0.57300    1.000
    H43      H        0.43000    0.38200    0.32000    1.000
    H44      H        0.40300    0.26600    0.42500    1.000
    H45      H        0.45800    0.07500    0.36000    1.000
    H46      H        0.56200    0.15200    0.26000    1.000
    H47      H        0.60500    0.27300    0.17800    1.000
    H48      H        0.86600    0.07900    0.08500    1.000
    H49      H        0.71000    0.11100    0.91200    1.000
    H50      H        0.72100    0.90100    0.72400    1.000
    H51      H        0.88400    0.87700    0.90800    1.000
    Zn4      Zn       0.54693    0.45434    0.18315    1.000
    C55      C        0.62350    0.61240    0.33770    1.000
    C56      C        0.66820    0.68830    0.38060    1.000
    C57      C        0.69800    0.68900    0.18490    1.000
    C58      C        0.65370    0.61370    0.14060    1.000
    C59      C        0.58120    0.56610    0.42350    1.000
    N13      N        0.70600    0.72730    0.30350    1.000
    N14      N        0.61540    0.57520    0.21660    1.000
    O7       O        0.59630    0.59490    0.54500    1.000
    O8       O        0.53470    0.50170    0.36560    1.000
    N15      N        0.39420    0.47750    0.01870    1.000
    N16      N        0.01340    0.83920    0.23940    1.000
    C60      C        0.34690    0.42370    0.90890    1.000
    C61      C        0.25020    0.43480    0.78810    1.000
    C62      C        0.19600    0.50580    0.77930    1.000
    C63      C        0.24380    0.56050    0.89690    1.000
    C64      C        0.34150    0.54500    0.01200    1.000
    C65      C        0.05310    0.77100    0.21830    1.000
    C66      C        0.04280    0.69780    0.27250    1.000
    C67      C        0.99070    0.69120    0.35180    1.000
    C68      C        0.94720    0.76110    0.36890    1.000
    C69      C        0.95910    0.83310    0.30980    1.000
    C70      C        0.09050    0.52150    0.64920    1.000
    C71      C        0.09220    0.59550    0.56040    1.000
    C72      C        0.98680    0.61310    0.42550    1.000
    H52      H        0.66000    0.71900    0.47000    1.000
    H53      H        0.71300    0.71900    0.12500    1.000
    H54      H        0.64900    0.59100    0.05900    1.000
    H55      H        0.11200    0.64700    0.63300    1.000
    H56      H        0.93200    0.61400    0.45300    1.000
    H57      H        0.14000    0.58800    0.54600    1.000
    H58      H        0.03000    0.52500    0.66700    1.000
    H59      H        0.05400    0.46800    0.57300    1.000
    H60      H        0.93000    0.88200    0.32000    1.000
    H61      H        0.90300    0.76600    0.42500    1.000
    H62      H        0.95800    0.57500    0.36000    1.000
    H63      H        0.06200    0.65200    0.26000    1.000
    H64      H        0.10500    0.77300    0.17800    1.000
    H65      H        0.36600    0.57900    0.08500    1.000
    H66      H        0.21000    0.61100    0.91200    1.000
    H67      H        0.22100    0.40100    0.72400    1.000
    H68      H        0.38400    0.37700    0.90800    1.000
