# CIF file generated by openbabel 3.1.0, see https://openbabel.org
data_I
_chemical_name_common 'image0'
_cell_length_a 29.0354
_cell_length_b 22.1378
_cell_length_c 24.5583
_cell_angle_alpha 90
_cell_angle_beta 108.987
_cell_angle_gamma 90
_space_group_name_H-M_alt 'P 1'
_space_group_name_Hall 'P 1'
loop_
    _symmetry_equiv_pos_as_xyz
    x,y,z
loop_
    _atom_site_label
    _atom_site_type_symbol
    _atom_site_fract_x
    _atom_site_fract_y
    _atom_site_fract_z
    _atom_site_occupancy
    W1       W        0.80705    0.56855    0.18025    1.000
    W2       W        0.81473    0.89153    0.18010    1.000
    W3       W        0.90845    0.46252    0.17974    1.000
    W4       W        0.97642    0.61123    0.39647    1.000
    W5       W        0.93827    0.77237    0.39732    1.000
    W6       W        0.76903    0.73289    0.18193    1.000
    W7       W        0.03916    0.46173    0.17829    1.000
    W8       W        0.95712    0.86903    0.10501    1.000
    W9       W        0.85462    0.76688    0.10476    1.000
    W10      W        0.89517    0.60670    0.10486    1.000
    W11      W        0.81223    0.71880    0.32473    1.000
    W12      W        0.04924    0.98454    0.17803    1.000
    W13      W        0.85334    0.55558    0.32276    1.000
    W14      W        0.07942    0.99319    0.32039    1.000
    W15      W        0.84562    0.88252    0.32288    1.000
    Sm1      Sm       0.81515    0.44878    0.43628    1.000
    Sm2      Sm       0.92205    0.90311    0.93446    1.000
    P1       P        0.88638    0.77330    0.25130    1.000
    P2       P        0.92963    0.59770    0.25050    1.000
    O1       O        0.89890    0.76090    0.19750    1.000
    O2       O        0.80610    0.73030    0.13030    1.000
    O3       O        0.83460    0.84320    0.13110    1.000
    O4       O        0.91230    0.80840    0.10160    1.000
    O5       O        0.88230    0.69110    0.10030    1.000
    O6       O        0.95790    0.62360    0.10040    1.000
    O7       O        0.86490    0.59060    0.03280    1.000
    O8       O        0.93110    0.62700    0.19620    1.000
    O9       O        0.83910    0.59690    0.12910    1.000
    O10      O        0.91250    0.52540    0.12950    1.000
    O11      O        0.04180    0.92610    0.24970    1.000
    O12      O        0.90830    0.59720    0.37270    1.000
    O13      O        0.87580    0.73090    0.37390    1.000
    O14      O        0.97870    0.44830    0.18450    1.000
    O15      O        0.94610    0.52950    0.25080    1.000
    O16      O        0.82640    0.52460    0.36940    1.000
    O17      O        0.01100    0.92740    0.12890    1.000
    O18      O        0.86910    0.84060    0.25000    1.000
    O19      O        0.78210    0.64180    0.18730    1.000
    O20      O        0.77610    0.81520    0.18510    1.000
    O21      O        0.98330    0.01250    0.18210    1.000
    O22      O        0.98050    0.52780    0.37050    1.000
    O23      O        0.80270    0.53880    0.25180    1.000
    O24      O        0.10570    0.94750    0.18320    1.000
    O25      O        0.80420    0.91430    0.25060    1.000
    O26      O        0.96800    0.69540    0.39960    1.000
    O27      O        0.07990    0.92770    0.37110    1.000
    O28      O        0.92590    0.42040    0.25170    1.000
    O29      O        0.07550    0.03040    0.24920    1.000
    O30      O        0.75710    0.72510    0.25400    1.000
    O31      O        0.81280    0.81200    0.31950    1.000
    O32      O        0.86040    0.95030    0.18560    1.000
    O33      O        0.94370    0.77690    0.46900    1.000
    O34      O        0.93600    0.89000    0.03270    1.000
    O35      O        0.89330    0.49370    0.31810    1.000
    O36      O        0.01560    0.84560    0.30400    1.000
    O37      O        0.90320    0.84500    0.37230    1.000
    O38      O        0.85140    0.49280    0.18360    1.000
    O39      O        0.00310    0.80940    0.09930    1.000
    O40      O        0.87590    0.59690    0.25250    1.000
    O41      O        0.96280    0.63080    0.30430    1.000
    O42      O        0.05110    0.04480    0.13240    1.000
    O43      O        0.77920    0.72080    0.37200    1.000
    O44      O        0.93530    0.00260    0.97210    1.000
    O45      O        0.76310    0.92530    0.13340    1.000
    O46      O        0.81950    0.63800    0.31800    1.000
    O47      O        0.99250    0.07300    0.01880    1.000
    O48      O        0.84330    0.73360    0.25290    1.000
    O49      O        0.93120    0.76300    0.30540    1.000
    O50      O        0.96430    0.81190    0.94850    1.000
    C1       C        0.97700    0.02480    0.99700    1.000
    K1       K        0.76511    0.71810    0.46980    1.000
    K2       K        0.95550    0.78420    0.57540    1.000
    Na1      Na       0.98380    0.72500    0.19190    1.000
    W16      W        0.30705    0.06855    0.18025    1.000
    W17      W        0.31473    0.39153    0.18010    1.000
    W18      W        0.40845    0.96252    0.17974    1.000
    W19      W        0.47642    0.11123    0.39647    1.000
    W20      W        0.43827    0.27237    0.39732    1.000
    W21      W        0.26903    0.23289    0.18193    1.000
    W22      W        0.53916    0.96173    0.17829    1.000
    W23      W        0.45712    0.36903    0.10501    1.000
    W24      W        0.35462    0.26688    0.10476    1.000
    W25      W        0.39517    0.10670    0.10486    1.000
    W26      W        0.31223    0.21880    0.32473    1.000
    W27      W        0.54924    0.48454    0.17803    1.000
    W28      W        0.35334    0.05558    0.32276    1.000
    W29      W        0.57942    0.49319    0.32039    1.000
    W30      W        0.34562    0.38252    0.32288    1.000
    Sm3      Sm       0.31515    0.94878    0.43628    1.000
    Sm4      Sm       0.42205    0.40311    0.93446    1.000
    P3       P        0.38638    0.27330    0.25130    1.000
    P4       P        0.42963    0.09770    0.25050    1.000
    O51      O        0.39890    0.26090    0.19750    1.000
    O52      O        0.30610    0.23030    0.13030    1.000
    O53      O        0.33460    0.34320    0.13110    1.000
    O54      O        0.41230    0.30840    0.10160    1.000
    O55      O        0.38230    0.19110    0.10030    1.000
    O56      O        0.45790    0.12360    0.10040    1.000
    O57      O        0.36490    0.09060    0.03280    1.000
    O58      O        0.43110    0.12700    0.19620    1.000
    O59      O        0.33910    0.09690    0.12910    1.000
    O60      O        0.41250    0.02540    0.12950    1.000
    O61      O        0.54180    0.42610    0.24970    1.000
    O62      O        0.40830    0.09720    0.37270    1.000
    O63      O        0.37580    0.23090    0.37390    1.000
    O64      O        0.47870    0.94830    0.18450    1.000
    O65      O        0.44610    0.02950    0.25080    1.000
    O66      O        0.32640    0.02460    0.36940    1.000
    O67      O        0.51100    0.42740    0.12890    1.000
    O68      O        0.36910    0.34060    0.25000    1.000
    O69      O        0.28210    0.14180    0.18730    1.000
    O70      O        0.27610    0.31520    0.18510    1.000
    O71      O        0.48330    0.51250    0.18210    1.000
    O72      O        0.48050    0.02780    0.37050    1.000
    O73      O        0.30270    0.03880    0.25180    1.000
    O74      O        0.60570    0.44750    0.18320    1.000
    O75      O        0.30420    0.41430    0.25060    1.000
    O76      O        0.46800    0.19540    0.39960    1.000
    O77      O        0.57990    0.42770    0.37110    1.000
    O78      O        0.42590    0.92040    0.25170    1.000
    O79      O        0.57550    0.53040    0.24920    1.000
    O80      O        0.25710    0.22510    0.25400    1.000
    O81      O        0.31280    0.31200    0.31950    1.000
    O82      O        0.36040    0.45030    0.18560    1.000
    O83      O        0.44370    0.27690    0.46900    1.000
    O84      O        0.43600    0.39000    0.03270    1.000
    O85      O        0.39330    0.99370    0.31810    1.000
    O86      O        0.51560    0.34560    0.30400    1.000
    O87      O        0.40320    0.34500    0.37230    1.000
    O88      O        0.35140    0.99280    0.18360    1.000
    O89      O        0.50310    0.30940    0.09930    1.000
    O90      O        0.37590    0.09690    0.25250    1.000
    O91      O        0.46280    0.13080    0.30430    1.000
    O92      O        0.55110    0.54480    0.13240    1.000
    O93      O        0.27920    0.22080    0.37200    1.000
    O94      O        0.43530    0.50260    0.97210    1.000
    O95      O        0.26310    0.42530    0.13340    1.000
    O96      O        0.31950    0.13800    0.31800    1.000
    O97      O        0.49250    0.57300    0.01880    1.000
    O98      O        0.34330    0.23360    0.25290    1.000
    O99      O        0.43120    0.26300    0.30540    1.000
    O100     O        0.46430    0.31190    0.94850    1.000
    C2       C        0.47700    0.52480    0.99700    1.000
    K3       K        0.26511    0.21810    0.46980    1.000
    K4       K        0.45550    0.28420    0.57540    1.000
    Na2      Na       0.48380    0.22500    0.19190    1.000
    W31      W        0.19295    0.56855    0.31975    1.000
    W32      W        0.18527    0.89153    0.31990    1.000
    W33      W        0.09155    0.46252    0.32026    1.000
    W34      W        0.02358    0.61123    0.10353    1.000
    W35      W        0.06173    0.77237    0.10268    1.000
    W36      W        0.23097    0.73289    0.31807    1.000
    W37      W        0.96084    0.46173    0.32171    1.000
    W38      W        0.04288    0.86903    0.39499    1.000
    W39      W        0.14538    0.76688    0.39524    1.000
    W40      W        0.10483    0.60670    0.39514    1.000
    W41      W        0.18777    0.71880    0.17527    1.000
    W42      W        0.95076    0.98454    0.32197    1.000
    W43      W        0.14666    0.55558    0.17724    1.000
    W44      W        0.92058    0.99319    0.17961    1.000
    W45      W        0.15438    0.88252    0.17712    1.000
    Sm5      Sm       0.18485    0.44878    0.06372    1.000
    Sm6      Sm       0.07795    0.90311    0.56554    1.000
    P5       P        0.11362    0.77330    0.24870    1.000
    P6       P        0.07037    0.59770    0.24950    1.000
    O101     O        0.10110    0.76090    0.30250    1.000
    O102     O        0.19390    0.73030    0.36970    1.000
    O103     O        0.16540    0.84320    0.36890    1.000
    O104     O        0.08770    0.80840    0.39840    1.000
    O105     O        0.11770    0.69110    0.39970    1.000
    O106     O        0.04210    0.62360    0.39960    1.000
    O107     O        0.13510    0.59060    0.46720    1.000
    O108     O        0.06890    0.62700    0.30380    1.000
    O109     O        0.16090    0.59690    0.37090    1.000
    O110     O        0.08750    0.52540    0.37050    1.000
    O111     O        0.95820    0.92610    0.25030    1.000
    O112     O        0.09170    0.59720    0.12730    1.000
    O113     O        0.12420    0.73090    0.12610    1.000
    O114     O        0.02130    0.44830    0.31550    1.000
    O115     O        0.05390    0.52950    0.24920    1.000
    O116     O        0.17360    0.52460    0.13060    1.000
    O117     O        0.98900    0.92740    0.37110    1.000
    O118     O        0.13090    0.84060    0.25000    1.000
    O119     O        0.21790    0.64180    0.31270    1.000
    O120     O        0.22390    0.81520    0.31490    1.000
    O121     O        0.01670    0.01250    0.31790    1.000
    O122     O        0.01950    0.52780    0.12950    1.000
    O123     O        0.19730    0.53880    0.24820    1.000
    O124     O        0.89430    0.94750    0.31680    1.000
    O125     O        0.19580    0.91430    0.24940    1.000
    O126     O        0.03200    0.69540    0.10040    1.000
    O127     O        0.92010    0.92770    0.12890    1.000
    O128     O        0.07410    0.42040    0.24830    1.000
    O129     O        0.92450    0.03040    0.25080    1.000
    O130     O        0.24290    0.72510    0.24600    1.000
    O131     O        0.18720    0.81200    0.18050    1.000
    O132     O        0.13960    0.95030    0.31440    1.000
    O133     O        0.05630    0.77690    0.03100    1.000
    O134     O        0.06400    0.89000    0.46730    1.000
    O135     O        0.10670    0.49370    0.18190    1.000
    O136     O        0.98440    0.84560    0.19600    1.000
    O137     O        0.09680    0.84500    0.12770    1.000
    O138     O        0.14860    0.49280    0.31640    1.000
    O139     O        0.99690    0.80940    0.40070    1.000
    O140     O        0.12410    0.59690    0.24750    1.000
    O141     O        0.03720    0.63080    0.19570    1.000
    O142     O        0.94890    0.04480    0.36760    1.000
    O143     O        0.22080    0.72080    0.12800    1.000
    O144     O        0.06470    0.00260    0.52790    1.000
    O145     O        0.23690    0.92530    0.36660    1.000
    O146     O        0.18050    0.63800    0.18200    1.000
    O147     O        0.00750    0.07300    0.48120    1.000
    O148     O        0.15670    0.73360    0.24710    1.000
    O149     O        0.06880    0.76300    0.19460    1.000
    O150     O        0.03570    0.81190    0.55150    1.000
    C3       C        0.02300    0.02480    0.50300    1.000
    K5       K        0.23489    0.71810    0.03020    1.000
    K6       K        0.04450    0.78420    0.92460    1.000
    Na3      Na       0.01620    0.72500    0.30810    1.000
    W46      W        0.69295    0.06855    0.31975    1.000
    W47      W        0.68527    0.39153    0.31990    1.000
    W48      W        0.59155    0.96252    0.32026    1.000
    W49      W        0.52358    0.11123    0.10353    1.000
    W50      W        0.56173    0.27237    0.10268    1.000
    W51      W        0.73097    0.23289    0.31807    1.000
    W52      W        0.46084    0.96173    0.32171    1.000
    W53      W        0.54288    0.36903    0.39499    1.000
    W54      W        0.64538    0.26688    0.39524    1.000
    W55      W        0.60483    0.10670    0.39514    1.000
    W56      W        0.68777    0.21880    0.17527    1.000
    W57      W        0.45076    0.48454    0.32197    1.000
    W58      W        0.64666    0.05558    0.17724    1.000
    W59      W        0.42058    0.49319    0.17961    1.000
    W60      W        0.65438    0.38252    0.17712    1.000
    Sm7      Sm       0.68485    0.94878    0.06372    1.000
    Sm8      Sm       0.57795    0.40311    0.56554    1.000
    P7       P        0.61362    0.27330    0.24870    1.000
    P8       P        0.57037    0.09770    0.24950    1.000
    O151     O        0.60110    0.26090    0.30250    1.000
    O152     O        0.69390    0.23030    0.36970    1.000
    O153     O        0.66540    0.34320    0.36890    1.000
    O154     O        0.58770    0.30840    0.39840    1.000
    O155     O        0.61770    0.19110    0.39970    1.000
    O156     O        0.54210    0.12360    0.39960    1.000
    O157     O        0.63510    0.09060    0.46720    1.000
    O158     O        0.56890    0.12700    0.30380    1.000
    O159     O        0.66090    0.09690    0.37090    1.000
    O160     O        0.58750    0.02540    0.37050    1.000
    O161     O        0.45820    0.42610    0.25030    1.000
    O162     O        0.59170    0.09720    0.12730    1.000
    O163     O        0.62420    0.23090    0.12610    1.000
    O164     O        0.52130    0.94830    0.31550    1.000
    O165     O        0.55390    0.02950    0.24920    1.000
    O166     O        0.67360    0.02460    0.13060    1.000
    O167     O        0.48900    0.42740    0.37110    1.000
    O168     O        0.63090    0.34060    0.25000    1.000
    O169     O        0.71790    0.14180    0.31270    1.000
    O170     O        0.72390    0.31520    0.31490    1.000
    O171     O        0.51670    0.51250    0.31790    1.000
    O172     O        0.51950    0.02780    0.12950    1.000
    O173     O        0.69730    0.03880    0.24820    1.000
    O174     O        0.39430    0.44750    0.31680    1.000
    O175     O        0.69580    0.41430    0.24940    1.000
    O176     O        0.53200    0.19540    0.10040    1.000
    O177     O        0.42010    0.42770    0.12890    1.000
    O178     O        0.57410    0.92040    0.24830    1.000
    O179     O        0.42450    0.53040    0.25080    1.000
    O180     O        0.74290    0.22510    0.24600    1.000
    O181     O        0.68720    0.31200    0.18050    1.000
    O182     O        0.63960    0.45030    0.31440    1.000
    O183     O        0.55630    0.27690    0.03100    1.000
    O184     O        0.56400    0.39000    0.46730    1.000
    O185     O        0.60670    0.99370    0.18190    1.000
    O186     O        0.48440    0.34560    0.19600    1.000
    O187     O        0.59680    0.34500    0.12770    1.000
    O188     O        0.64860    0.99280    0.31640    1.000
    O189     O        0.49690    0.30940    0.40070    1.000
    O190     O        0.62410    0.09690    0.24750    1.000
    O191     O        0.53720    0.13080    0.19570    1.000
    O192     O        0.44890    0.54480    0.36760    1.000
    O193     O        0.72080    0.22080    0.12800    1.000
    O194     O        0.56470    0.50260    0.52790    1.000
    O195     O        0.73690    0.42530    0.36660    1.000
    O196     O        0.68050    0.13800    0.18200    1.000
    O197     O        0.50750    0.57300    0.48120    1.000
    O198     O        0.65670    0.23360    0.24710    1.000
    O199     O        0.56880    0.26300    0.19460    1.000
    O200     O        0.53570    0.31190    0.55150    1.000
    C4       C        0.52300    0.52480    0.50300    1.000
    K7       K        0.73489    0.21810    0.03020    1.000
    K8       K        0.54450    0.28420    0.92460    1.000
    Na4      Na       0.51620    0.22500    0.30810    1.000
    W61      W        0.19295    0.43145    0.81975    1.000
    W62      W        0.18527    0.10847    0.81990    1.000
    W63      W        0.09155    0.53748    0.82026    1.000
    W64      W        0.02358    0.38877    0.60353    1.000
    W65      W        0.06173    0.22763    0.60268    1.000
    W66      W        0.23097    0.26711    0.81807    1.000
    W67      W        0.96084    0.53827    0.82171    1.000
    W68      W        0.04288    0.13097    0.89499    1.000
    W69      W        0.14538    0.23312    0.89524    1.000
    W70      W        0.10483    0.39330    0.89514    1.000
    W71      W        0.18777    0.28120    0.67527    1.000
    W72      W        0.95076    0.01546    0.82197    1.000
    W73      W        0.14666    0.44442    0.67724    1.000
    W74      W        0.92058    0.00681    0.67961    1.000
    W75      W        0.15438    0.11748    0.67712    1.000
    Sm9      Sm       0.18485    0.55122    0.56372    1.000
    Sm10     Sm       0.07795    0.09689    0.06554    1.000
    P9       P        0.11362    0.22670    0.74870    1.000
    P10      P        0.07037    0.40230    0.74950    1.000
    O201     O        0.10110    0.23910    0.80250    1.000
    O202     O        0.19390    0.26970    0.86970    1.000
    O203     O        0.16540    0.15680    0.86890    1.000
    O204     O        0.08770    0.19160    0.89840    1.000
    O205     O        0.11770    0.30890    0.89970    1.000
    O206     O        0.04210    0.37640    0.89960    1.000
    O207     O        0.13510    0.40940    0.96720    1.000
    O208     O        0.06890    0.37300    0.80380    1.000
    O209     O        0.16090    0.40310    0.87090    1.000
    O210     O        0.08750    0.47460    0.87050    1.000
    O211     O        0.95820    0.07390    0.75030    1.000
    O212     O        0.09170    0.40280    0.62730    1.000
    O213     O        0.12420    0.26910    0.62610    1.000
    O214     O        0.02130    0.55170    0.81550    1.000
    O215     O        0.05390    0.47050    0.74920    1.000
    O216     O        0.17360    0.47540    0.63060    1.000
    O217     O        0.98900    0.07260    0.87110    1.000
    O218     O        0.13090    0.15940    0.75000    1.000
    O219     O        0.21790    0.35820    0.81270    1.000
    O220     O        0.22390    0.18480    0.81490    1.000
    O221     O        0.01670    0.98750    0.81790    1.000
    O222     O        0.01950    0.47220    0.62950    1.000
    O223     O        0.19730    0.46120    0.74820    1.000
    O224     O        0.89430    0.05250    0.81680    1.000
    O225     O        0.19580    0.08570    0.74940    1.000
    O226     O        0.03200    0.30460    0.60040    1.000
    O227     O        0.92010    0.07230    0.62890    1.000
    O228     O        0.07410    0.57960    0.74830    1.000
    O229     O        0.92450    0.96960    0.75080    1.000
    O230     O        0.24290    0.27490    0.74600    1.000
    O231     O        0.18720    0.18800    0.68050    1.000
    O232     O        0.13960    0.04970    0.81440    1.000
    O233     O        0.05630    0.22310    0.53100    1.000
    O234     O        0.06400    0.11000    0.96730    1.000
    O235     O        0.10670    0.50630    0.68190    1.000
    O236     O        0.98440    0.15440    0.69600    1.000
    O237     O        0.09680    0.15500    0.62770    1.000
    O238     O        0.14860    0.50720    0.81640    1.000
    O239     O        0.99690    0.19060    0.90070    1.000
    O240     O        0.12410    0.40310    0.74750    1.000
    O241     O        0.03720    0.36920    0.69570    1.000
    O242     O        0.94890    0.95520    0.86760    1.000
    O243     O        0.22080    0.27920    0.62800    1.000
    O244     O        0.06470    0.99740    0.02790    1.000
    O245     O        0.23690    0.07470    0.86660    1.000
    O246     O        0.18050    0.36200    0.68200    1.000
    O247     O        0.00750    0.92700    0.98120    1.000
    O248     O        0.15670    0.26640    0.74710    1.000
    O249     O        0.06880    0.23700    0.69460    1.000
    O250     O        0.03570    0.18810    0.05150    1.000
    C5       C        0.02300    0.97520    0.00300    1.000
    K9       K        0.23489    0.28190    0.53020    1.000
    K10      K        0.04450    0.21580    0.42460    1.000
    Na5      Na       0.01620    0.27500    0.80810    1.000
    W76      W        0.69295    0.93145    0.81975    1.000
    W77      W        0.68527    0.60847    0.81990    1.000
    W78      W        0.59155    0.03748    0.82026    1.000
    W79      W        0.52358    0.88877    0.60353    1.000
    W80      W        0.56173    0.72763    0.60268    1.000
    W81      W        0.73097    0.76711    0.81807    1.000
    W82      W        0.46084    0.03827    0.82171    1.000
    W83      W        0.54288    0.63097    0.89499    1.000
    W84      W        0.64538    0.73312    0.89524    1.000
    W85      W        0.60483    0.89330    0.89514    1.000
    W86      W        0.68777    0.78120    0.67527    1.000
    W87      W        0.45076    0.51546    0.82197    1.000
    W88      W        0.64666    0.94442    0.67724    1.000
    W89      W        0.42058    0.50681    0.67961    1.000
    W90      W        0.65438    0.61748    0.67712    1.000
    Sm11     Sm       0.68485    0.05122    0.56372    1.000
    Sm12     Sm       0.57795    0.59689    0.06554    1.000
    P11      P        0.61362    0.72670    0.74870    1.000
    P12      P        0.57037    0.90230    0.74950    1.000
    O251     O        0.60110    0.73910    0.80250    1.000
    O252     O        0.69390    0.76970    0.86970    1.000
    O253     O        0.66540    0.65680    0.86890    1.000
    O254     O        0.58770    0.69160    0.89840    1.000
    O255     O        0.61770    0.80890    0.89970    1.000
    O256     O        0.54210    0.87640    0.89960    1.000
    O257     O        0.63510    0.90940    0.96720    1.000
    O258     O        0.56890    0.87300    0.80380    1.000
    O259     O        0.66090    0.90310    0.87090    1.000
    O260     O        0.58750    0.97460    0.87050    1.000
    O261     O        0.45820    0.57390    0.75030    1.000
    O262     O        0.59170    0.90280    0.62730    1.000
    O263     O        0.62420    0.76910    0.62610    1.000
    O264     O        0.52130    0.05170    0.81550    1.000
    O265     O        0.55390    0.97050    0.74920    1.000
    O266     O        0.67360    0.97540    0.63060    1.000
    O267     O        0.48900    0.57260    0.87110    1.000
    O268     O        0.63090    0.65940    0.75000    1.000
    O269     O        0.71790    0.85820    0.81270    1.000
    O270     O        0.72390    0.68480    0.81490    1.000
    O271     O        0.51670    0.48750    0.81790    1.000
    O272     O        0.51950    0.97220    0.62950    1.000
    O273     O        0.69730    0.96120    0.74820    1.000
    O274     O        0.39430    0.55250    0.81680    1.000
    O275     O        0.69580    0.58570    0.74940    1.000
    O276     O        0.53200    0.80460    0.60040    1.000
    O277     O        0.42010    0.57230    0.62890    1.000
    O278     O        0.57410    0.07960    0.74830    1.000
    O279     O        0.42450    0.46960    0.75080    1.000
    O280     O        0.74290    0.77490    0.74600    1.000
    O281     O        0.68720    0.68800    0.68050    1.000
    O282     O        0.63960    0.54970    0.81440    1.000
    O283     O        0.55630    0.72310    0.53100    1.000
    O284     O        0.56400    0.61000    0.96730    1.000
    O285     O        0.60670    0.00630    0.68190    1.000
    O286     O        0.48440    0.65440    0.69600    1.000
    O287     O        0.59680    0.65500    0.62770    1.000
    O288     O        0.64860    0.00720    0.81640    1.000
    O289     O        0.49690    0.69060    0.90070    1.000
    O290     O        0.62410    0.90310    0.74750    1.000
    O291     O        0.53720    0.86920    0.69570    1.000
    O292     O        0.44890    0.45520    0.86760    1.000
    O293     O        0.72080    0.77920    0.62800    1.000
    O294     O        0.56470    0.49740    0.02790    1.000
    O295     O        0.73690    0.57470    0.86660    1.000
    O296     O        0.68050    0.86200    0.68200    1.000
    O297     O        0.50750    0.42700    0.98120    1.000
    O298     O        0.65670    0.76640    0.74710    1.000
    O299     O        0.56880    0.73700    0.69460    1.000
    O300     O        0.53570    0.68810    0.05150    1.000
    C6       C        0.52300    0.47520    0.00300    1.000
    K11      K        0.73489    0.78190    0.53020    1.000
    K12      K        0.54450    0.71580    0.42460    1.000
    Na6      Na       0.51620    0.77500    0.80810    1.000
    W91      W        0.80705    0.43145    0.68025    1.000
    W92      W        0.81473    0.10847    0.68010    1.000
    W93      W        0.90845    0.53748    0.67974    1.000
    W94      W        0.97642    0.38877    0.89647    1.000
    W95      W        0.93827    0.22763    0.89732    1.000
    W96      W        0.76903    0.26711    0.68193    1.000
    W97      W        0.03916    0.53827    0.67829    1.000
    W98      W        0.95712    0.13097    0.60501    1.000
    W99      W        0.85462    0.23312    0.60476    1.000
    W100     W        0.89517    0.39330    0.60486    1.000
    W101     W        0.81223    0.28120    0.82473    1.000
    W102     W        0.04924    0.01546    0.67803    1.000
    W103     W        0.85334    0.44442    0.82276    1.000
    W104     W        0.07942    0.00681    0.82039    1.000
    W105     W        0.84562    0.11748    0.82288    1.000
    Sm13     Sm       0.81515    0.55122    0.93628    1.000
    Sm14     Sm       0.92205    0.09689    0.43446    1.000
    P13      P        0.88638    0.22670    0.75130    1.000
    P14      P        0.92963    0.40230    0.75050    1.000
    O301     O        0.89890    0.23910    0.69750    1.000
    O302     O        0.80610    0.26970    0.63030    1.000
    O303     O        0.83460    0.15680    0.63110    1.000
    O304     O        0.91230    0.19160    0.60160    1.000
    O305     O        0.88230    0.30890    0.60030    1.000
    O306     O        0.95790    0.37640    0.60040    1.000
    O307     O        0.86490    0.40940    0.53280    1.000
    O308     O        0.93110    0.37300    0.69620    1.000
    O309     O        0.83910    0.40310    0.62910    1.000
    O310     O        0.91250    0.47460    0.62950    1.000
    O311     O        0.04180    0.07390    0.74970    1.000
    O312     O        0.90830    0.40280    0.87270    1.000
    O313     O        0.87580    0.26910    0.87390    1.000
    O314     O        0.97870    0.55170    0.68450    1.000
    O315     O        0.94610    0.47050    0.75080    1.000
    O316     O        0.82640    0.47540    0.86940    1.000
    O317     O        0.01100    0.07260    0.62890    1.000
    O318     O        0.86910    0.15940    0.75000    1.000
    O319     O        0.78210    0.35820    0.68730    1.000
    O320     O        0.77610    0.18480    0.68510    1.000
    O321     O        0.98330    0.98750    0.68210    1.000
    O322     O        0.98050    0.47220    0.87050    1.000
    O323     O        0.80270    0.46120    0.75180    1.000
    O324     O        0.10570    0.05250    0.68320    1.000
    O325     O        0.80420    0.08570    0.75060    1.000
    O326     O        0.96800    0.30460    0.89960    1.000
    O327     O        0.07990    0.07230    0.87110    1.000
    O328     O        0.92590    0.57960    0.75170    1.000
    O329     O        0.07550    0.96960    0.74920    1.000
    O330     O        0.75710    0.27490    0.75400    1.000
    O331     O        0.81280    0.18800    0.81950    1.000
    O332     O        0.86040    0.04970    0.68560    1.000
    O333     O        0.94370    0.22310    0.96900    1.000
    O334     O        0.93600    0.11000    0.53270    1.000
    O335     O        0.89330    0.50630    0.81810    1.000
    O336     O        0.01560    0.15440    0.80400    1.000
    O337     O        0.90320    0.15500    0.87230    1.000
    O338     O        0.85140    0.50720    0.68360    1.000
    O339     O        0.00310    0.19060    0.59930    1.000
    O340     O        0.87590    0.40310    0.75250    1.000
    O341     O        0.96280    0.36920    0.80430    1.000
    O342     O        0.05110    0.95520    0.63240    1.000
    O343     O        0.77920    0.27920    0.87200    1.000
    O344     O        0.93530    0.99740    0.47210    1.000
    O345     O        0.76310    0.07470    0.63340    1.000
    O346     O        0.81950    0.36200    0.81800    1.000
    O347     O        0.99250    0.92700    0.51880    1.000
    O348     O        0.84330    0.26640    0.75290    1.000
    O349     O        0.93120    0.23700    0.80540    1.000
    O350     O        0.96430    0.18810    0.44850    1.000
    C7       C        0.97700    0.97520    0.49700    1.000
    K13      K        0.76511    0.28190    0.96980    1.000
    K14      K        0.95550    0.21580    0.07540    1.000
    Na7      Na       0.98380    0.27500    0.69190    1.000
    W106     W        0.30705    0.93145    0.68025    1.000
    W107     W        0.31473    0.60847    0.68010    1.000
    W108     W        0.40845    0.03748    0.67974    1.000
    W109     W        0.47642    0.88877    0.89647    1.000
    W110     W        0.43827    0.72763    0.89732    1.000
    W111     W        0.26903    0.76711    0.68193    1.000
    W112     W        0.53916    0.03827    0.67829    1.000
    W113     W        0.45712    0.63097    0.60501    1.000
    W114     W        0.35462    0.73312    0.60476    1.000
    W115     W        0.39517    0.89330    0.60486    1.000
    W116     W        0.31223    0.78120    0.82473    1.000
    W117     W        0.54924    0.51546    0.67803    1.000
    W118     W        0.35334    0.94442    0.82276    1.000
    W119     W        0.57942    0.50681    0.82039    1.000
    W120     W        0.34562    0.61748    0.82288    1.000
    Sm15     Sm       0.31515    0.05122    0.93628    1.000
    Sm16     Sm       0.42205    0.59689    0.43446    1.000
    P15      P        0.38638    0.72670    0.75130    1.000
    P16      P        0.42963    0.90230    0.75050    1.000
    O351     O        0.39890    0.73910    0.69750    1.000
    O352     O        0.30610    0.76970    0.63030    1.000
    O353     O        0.33460    0.65680    0.63110    1.000
    O354     O        0.41230    0.69160    0.60160    1.000
    O355     O        0.38230    0.80890    0.60030    1.000
    O356     O        0.45790    0.87640    0.60040    1.000
    O357     O        0.36490    0.90940    0.53280    1.000
    O358     O        0.43110    0.87300    0.69620    1.000
    O359     O        0.33910    0.90310    0.62910    1.000
    O360     O        0.41250    0.97460    0.62950    1.000
    O361     O        0.54180    0.57390    0.74970    1.000
    O362     O        0.40830    0.90280    0.87270    1.000
    O363     O        0.37580    0.76910    0.87390    1.000
    O364     O        0.47870    0.05170    0.68450    1.000
    O365     O        0.44610    0.97050    0.75080    1.000
    O366     O        0.32640    0.97540    0.86940    1.000
    O367     O        0.51100    0.57260    0.62890    1.000
    O368     O        0.36910    0.65940    0.75000    1.000
    O369     O        0.28210    0.85820    0.68730    1.000
    O370     O        0.27610    0.68480    0.68510    1.000
    O371     O        0.48330    0.48750    0.68210    1.000
    O372     O        0.48050    0.97220    0.87050    1.000
    O373     O        0.30270    0.96120    0.75180    1.000
    O374     O        0.60570    0.55250    0.68320    1.000
    O375     O        0.30420    0.58570    0.75060    1.000
    O376     O        0.46800    0.80460    0.89960    1.000
    O377     O        0.57990    0.57230    0.87110    1.000
    O378     O        0.42590    0.07960    0.75170    1.000
    O379     O        0.57550    0.46960    0.74920    1.000
    O380     O        0.25710    0.77490    0.75400    1.000
    O381     O        0.31280    0.68800    0.81950    1.000
    O382     O        0.36040    0.54970    0.68560    1.000
    O383     O        0.44370    0.72310    0.96900    1.000
    O384     O        0.43600    0.61000    0.53270    1.000
    O385     O        0.39330    0.00630    0.81810    1.000
    O386     O        0.51560    0.65440    0.80400    1.000
    O387     O        0.40320    0.65500    0.87230    1.000
    O388     O        0.35140    0.00720    0.68360    1.000
    O389     O        0.50310    0.69060    0.59930    1.000
    O390     O        0.37590    0.90310    0.75250    1.000
    O391     O        0.46280    0.86920    0.80430    1.000
    O392     O        0.55110    0.45520    0.63240    1.000
    O393     O        0.27920    0.77920    0.87200    1.000
    O394     O        0.43530    0.49740    0.47210    1.000
    O395     O        0.26310    0.57470    0.63340    1.000
    O396     O        0.31950    0.86200    0.81800    1.000
    O397     O        0.49250    0.42700    0.51880    1.000
    O398     O        0.34330    0.76640    0.75290    1.000
    O399     O        0.43120    0.73700    0.80540    1.000
    O400     O        0.46430    0.68810    0.44850    1.000
    C8       C        0.47700    0.47520    0.49700    1.000
    K15      K        0.26511    0.78190    0.96980    1.000
    K16      K        0.45550    0.71580    0.07540    1.000
    Na8      Na       0.48380    0.77500    0.69190    1.000
    P17      P        0.00000    0.88360    0.25000    1.000
    P18      P        0.50000    0.38360    0.25000    1.000
    P19      P        0.00000    0.11640    0.75000    1.000
    P20      P        0.50000    0.61640    0.75000    1.000
