# CIF file generated by openbabel 3.1.0, see https://openbabel.org
data_I
_chemical_name_common 'image0'
_cell_length_a 29.479
_cell_length_b 16.6876
_cell_length_c 15.7664
_cell_angle_alpha 90
_cell_angle_beta 113.53
_cell_angle_gamma 90
_space_group_name_H-M_alt 'P 1'
_space_group_name_Hall 'P 1'
loop_
    _symmetry_equiv_pos_as_xyz
    x,y,z
loop_
    _atom_site_label
    _atom_site_type_symbol
    _atom_site_fract_x
    _atom_site_fract_y
    _atom_site_fract_z
    _atom_site_occupancy
    Cd1      Cd       0.24817    0.28110    0.87496    1.000
    N1       N        0.33170    0.28270    0.94680    1.000
    N2       N        0.66250    0.21860    0.30180    1.000
    C1       C        0.35870    0.22450    0.92450    1.000
    H1       H        0.34140    0.18470    0.88300    1.000
    C2       C        0.63720    0.28380    0.29500    1.000
    H2       H        0.65290    0.32930    0.32750    1.000
    C3       C        0.56380    0.21940    0.19520    1.000
    C4       C        0.58530    0.28640    0.23820    1.000
    H3       H        0.56720    0.33330    0.23160    1.000
    C5       C        0.63830    0.15330    0.27440    1.000
    H4       H        0.65470    0.10440    0.29040    1.000
    C6       C        0.35900    0.34350    0.99410    1.000
    H5       H        0.34260    0.38890    0.00100    1.000
    C7       C        0.58760    0.15520    0.22050    1.000
    H6       H        0.57080    0.10690    0.20250    1.000
    C8       C        0.41070    0.22210    0.96090    1.000
    H7       H        0.42820    0.18350    0.94400    1.000
    C9       C        0.40990    0.34460    0.03390    1.000
    H8       H        0.42690    0.38910    0.06690    1.000
    C10      C        0.49120    0.28000    0.06860    1.000
    H9       H        0.51220    0.31070    0.05050    1.000
    C11      C        0.43330    0.28210    0.02410    1.000
    C12      C        0.16670    0.41540    0.27140    1.000
    C13      C        0.24590    0.35850    0.72300    1.000
    C14      C        0.24240    0.40170    0.63710    1.000
    C15      C        0.24460    0.48390    0.63780    1.000
    H10      H        0.24800    0.51200    0.69100    1.000
    C16      C        0.23650    0.35980    0.55830    1.000
    H11      H        0.23450    0.30420    0.55780    1.000
    C17      C        0.23360    0.40060    0.47930    1.000
    C18      C        0.24640    0.61440    0.56380    1.000
    C19      C        0.21820    0.38980    0.31660    1.000
    H12      H        0.22540    0.35220    0.27670    1.000
    H13      H        0.23960    0.43590    0.32520    1.000
    C20      C        0.23580    0.48410    0.47820    1.000
    H14      H        0.23330    0.51140    0.42510    1.000
    C21      C        0.12550    0.43330    0.23470    1.000
    H15      H        0.09240    0.44760    0.20530    1.000
    C22      C        0.50620    0.22280    0.14100    1.000
    H16      H        0.48430    0.19110    0.15570    1.000
    O1       O        0.24610    0.28280    0.72270    1.000
    O2       O        0.24960    0.64820    0.63550    1.000
    O3       O        0.24870    0.39910    0.79290    1.000
    O4       O        0.24700    0.65240    0.49710    1.000
    C23      C        0.24170    0.52540    0.55890    1.000
    O5       O        0.22890    0.35250    0.40490    1.000
    Cd2      Cd       0.74817    0.78110    0.87496    1.000
    N3       N        0.83170    0.78270    0.94680    1.000
    N4       N        0.16250    0.71860    0.30180    1.000
    C24      C        0.85870    0.72450    0.92450    1.000
    H17      H        0.84140    0.68470    0.88300    1.000
    C25      C        0.13720    0.78380    0.29500    1.000
    H18      H        0.15290    0.82930    0.32750    1.000
    C26      C        0.06380    0.71940    0.19520    1.000
    C27      C        0.08530    0.78640    0.23820    1.000
    H19      H        0.06720    0.83330    0.23160    1.000
    C28      C        0.13830    0.65330    0.27440    1.000
    H20      H        0.15470    0.60440    0.29040    1.000
    C29      C        0.85900    0.84350    0.99410    1.000
    H21      H        0.84260    0.88890    0.00100    1.000
    C30      C        0.08760    0.65520    0.22050    1.000
    H22      H        0.07080    0.60690    0.20250    1.000
    C31      C        0.91070    0.72210    0.96090    1.000
    H23      H        0.92820    0.68350    0.94400    1.000
    C32      C        0.90990    0.84460    0.03390    1.000
    H24      H        0.92690    0.88910    0.06690    1.000
    C33      C        0.99120    0.78000    0.06860    1.000
    H25      H        0.01220    0.81070    0.05050    1.000
    C34      C        0.93330    0.78210    0.02410    1.000
    C35      C        0.66670    0.91540    0.27140    1.000
    C36      C        0.74590    0.85850    0.72300    1.000
    C37      C        0.74240    0.90170    0.63710    1.000
    C38      C        0.74460    0.98390    0.63780    1.000
    H26      H        0.74800    0.01200    0.69100    1.000
    C39      C        0.73650    0.85980    0.55830    1.000
    H27      H        0.73450    0.80420    0.55780    1.000
    C40      C        0.73360    0.90060    0.47930    1.000
    C41      C        0.74640    0.11440    0.56380    1.000
    C42      C        0.71820    0.88980    0.31660    1.000
    H28      H        0.72540    0.85220    0.27670    1.000
    H29      H        0.73960    0.93590    0.32520    1.000
    C43      C        0.73580    0.98410    0.47820    1.000
    H30      H        0.73330    0.01140    0.42510    1.000
    C44      C        0.62550    0.93330    0.23470    1.000
    H31      H        0.59240    0.94760    0.20530    1.000
    C45      C        0.00620    0.72280    0.14100    1.000
    H32      H        0.98430    0.69110    0.15570    1.000
    O6       O        0.74610    0.78280    0.72270    1.000
    O7       O        0.74960    0.14820    0.63550    1.000
    O8       O        0.74870    0.89910    0.79290    1.000
    O9       O        0.74700    0.15240    0.49710    1.000
    C46      C        0.74170    0.02540    0.55890    1.000
    O10      O        0.72890    0.85250    0.40490    1.000
    Cd3      Cd       0.75183    0.28110    0.62504    1.000
    N5       N        0.66830    0.28270    0.55320    1.000
    N6       N        0.33750    0.21860    0.19820    1.000
    C47      C        0.64130    0.22450    0.57550    1.000
    H33      H        0.65860    0.18470    0.61700    1.000
    C48      C        0.36280    0.28380    0.20500    1.000
    H34      H        0.34710    0.32930    0.17250    1.000
    C49      C        0.43620    0.21940    0.30480    1.000
    C50      C        0.41470    0.28640    0.26180    1.000
    H35      H        0.43280    0.33330    0.26840    1.000
    C51      C        0.36170    0.15330    0.22560    1.000
    H36      H        0.34530    0.10440    0.20960    1.000
    C52      C        0.64100    0.34350    0.50590    1.000
    H37      H        0.65740    0.38890    0.49900    1.000
    C53      C        0.41240    0.15520    0.27950    1.000
    H38      H        0.42920    0.10690    0.29750    1.000
    C54      C        0.58930    0.22210    0.53910    1.000
    H39      H        0.57180    0.18350    0.55600    1.000
    C55      C        0.59010    0.34460    0.46610    1.000
    H40      H        0.57310    0.38910    0.43310    1.000
    C56      C        0.50880    0.28000    0.43140    1.000
    H41      H        0.48780    0.31070    0.44950    1.000
    C57      C        0.56670    0.28210    0.47590    1.000
    C58      C        0.83330    0.41540    0.22860    1.000
    C59      C        0.75410    0.35850    0.77700    1.000
    C60      C        0.75760    0.40170    0.86290    1.000
    C61      C        0.75540    0.48390    0.86220    1.000
    H42      H        0.75200    0.51200    0.80900    1.000
    C62      C        0.76350    0.35980    0.94170    1.000
    H43      H        0.76550    0.30420    0.94220    1.000
    C63      C        0.76640    0.40060    0.02070    1.000
    C64      C        0.75360    0.61440    0.93620    1.000
    C65      C        0.78180    0.38980    0.18340    1.000
    H44      H        0.77460    0.35220    0.22330    1.000
    H45      H        0.76040    0.43590    0.17480    1.000
    C66      C        0.76420    0.48410    0.02180    1.000
    H46      H        0.76670    0.51140    0.07490    1.000
    C67      C        0.87450    0.43330    0.26530    1.000
    H47      H        0.90760    0.44760    0.29470    1.000
    C68      C        0.49380    0.22280    0.35900    1.000
    H48      H        0.51570    0.19110    0.34430    1.000
    O11      O        0.75390    0.28280    0.77730    1.000
    O12      O        0.75040    0.64820    0.86450    1.000
    O13      O        0.75130    0.39910    0.70710    1.000
    O14      O        0.75300    0.65240    0.00290    1.000
    C69      C        0.75830    0.52540    0.94110    1.000
    O15      O        0.77110    0.35250    0.09510    1.000
    Cd4      Cd       0.25183    0.78110    0.62504    1.000
    N7       N        0.16830    0.78270    0.55320    1.000
    N8       N        0.83750    0.71860    0.19820    1.000
    C70      C        0.14130    0.72450    0.57550    1.000
    H49      H        0.15860    0.68470    0.61700    1.000
    C71      C        0.86280    0.78380    0.20500    1.000
    H50      H        0.84710    0.82930    0.17250    1.000
    C72      C        0.93620    0.71940    0.30480    1.000
    C73      C        0.91470    0.78640    0.26180    1.000
    H51      H        0.93280    0.83330    0.26840    1.000
    C74      C        0.86170    0.65330    0.22560    1.000
    H52      H        0.84530    0.60440    0.20960    1.000
    C75      C        0.14100    0.84350    0.50590    1.000
    H53      H        0.15740    0.88890    0.49900    1.000
    C76      C        0.91240    0.65520    0.27950    1.000
    H54      H        0.92920    0.60690    0.29750    1.000
    C77      C        0.08930    0.72210    0.53910    1.000
    H55      H        0.07180    0.68350    0.55600    1.000
    C78      C        0.09010    0.84460    0.46610    1.000
    H56      H        0.07310    0.88910    0.43310    1.000
    C79      C        0.00880    0.78000    0.43140    1.000
    H57      H        0.98780    0.81070    0.44950    1.000
    C80      C        0.06670    0.78210    0.47590    1.000
    C81      C        0.33330    0.91540    0.22860    1.000
    C82      C        0.25410    0.85850    0.77700    1.000
    C83      C        0.25760    0.90170    0.86290    1.000
    C84      C        0.25540    0.98390    0.86220    1.000
    H58      H        0.25200    0.01200    0.80900    1.000
    C85      C        0.26350    0.85980    0.94170    1.000
    H59      H        0.26550    0.80420    0.94220    1.000
    C86      C        0.26640    0.90060    0.02070    1.000
    C87      C        0.25360    0.11440    0.93620    1.000
    C88      C        0.28180    0.88980    0.18340    1.000
    H60      H        0.27460    0.85220    0.22330    1.000
    H61      H        0.26040    0.93590    0.17480    1.000
    C89      C        0.26420    0.98410    0.02180    1.000
    H62      H        0.26670    0.01140    0.07490    1.000
    C90      C        0.37450    0.93330    0.26530    1.000
    H63      H        0.40760    0.94760    0.29470    1.000
    C91      C        0.99380    0.72280    0.35900    1.000
    H64      H        0.01570    0.69110    0.34430    1.000
    O16      O        0.25390    0.78280    0.77730    1.000
    O17      O        0.25040    0.14820    0.86450    1.000
    O18      O        0.25130    0.89910    0.70710    1.000
    O19      O        0.25300    0.15240    0.00290    1.000
    C92      C        0.25830    0.02540    0.94110    1.000
    O20      O        0.27110    0.85250    0.09510    1.000
    Cd5      Cd       0.75183    0.71890    0.12504    1.000
    N9       N        0.66830    0.71730    0.05320    1.000
    N10      N        0.33750    0.78140    0.69820    1.000
    C93      C        0.64130    0.77550    0.07550    1.000
    H65      H        0.65860    0.81530    0.11700    1.000
    C94      C        0.36280    0.71620    0.70500    1.000
    H66      H        0.34710    0.67070    0.67250    1.000
    C95      C        0.43620    0.78060    0.80480    1.000
    C96      C        0.41470    0.71360    0.76180    1.000
    H67      H        0.43280    0.66670    0.76840    1.000
    C97      C        0.36170    0.84670    0.72560    1.000
    H68      H        0.34530    0.89560    0.70960    1.000
    C98      C        0.64100    0.65650    0.00590    1.000
    H69      H        0.65740    0.61110    0.99900    1.000
    C99      C        0.41240    0.84480    0.77950    1.000
    H70      H        0.42920    0.89310    0.79750    1.000
    C100     C        0.58930    0.77790    0.03910    1.000
    H71      H        0.57180    0.81650    0.05600    1.000
    C101     C        0.59010    0.65540    0.96610    1.000
    H72      H        0.57310    0.61090    0.93310    1.000
    C102     C        0.50880    0.72000    0.93140    1.000
    H73      H        0.48780    0.68930    0.94950    1.000
    C103     C        0.56670    0.71790    0.97590    1.000
    C104     C        0.83330    0.58460    0.72860    1.000
    C105     C        0.75410    0.64150    0.27700    1.000
    C106     C        0.75760    0.59830    0.36290    1.000
    C107     C        0.75540    0.51610    0.36220    1.000
    H74      H        0.75200    0.48800    0.30900    1.000
    C108     C        0.76350    0.64020    0.44170    1.000
    H75      H        0.76550    0.69580    0.44220    1.000
    C109     C        0.76640    0.59940    0.52070    1.000
    C110     C        0.75360    0.38560    0.43620    1.000
    C111     C        0.78180    0.61020    0.68340    1.000
    H76      H        0.77460    0.64780    0.72330    1.000
    H77      H        0.76040    0.56410    0.67480    1.000
    C112     C        0.76420    0.51590    0.52180    1.000
    H78      H        0.76670    0.48860    0.57490    1.000
    C113     C        0.87450    0.56670    0.76530    1.000
    H79      H        0.90760    0.55240    0.79470    1.000
    C114     C        0.49380    0.77720    0.85900    1.000
    H80      H        0.51570    0.80890    0.84430    1.000
    O21      O        0.75390    0.71720    0.27730    1.000
    O22      O        0.75040    0.35180    0.36450    1.000
    O23      O        0.75130    0.60090    0.20710    1.000
    O24      O        0.75300    0.34760    0.50290    1.000
    C115     C        0.75830    0.47460    0.44110    1.000
    O25      O        0.77110    0.64750    0.59510    1.000
    Cd6      Cd       0.25183    0.21890    0.12504    1.000
    N11      N        0.16830    0.21730    0.05320    1.000
    N12      N        0.83750    0.28140    0.69820    1.000
    C116     C        0.14130    0.27550    0.07550    1.000
    H81      H        0.15860    0.31530    0.11700    1.000
    C117     C        0.86280    0.21620    0.70500    1.000
    H82      H        0.84710    0.17070    0.67250    1.000
    C118     C        0.93620    0.28060    0.80480    1.000
    C119     C        0.91470    0.21360    0.76180    1.000
    H83      H        0.93280    0.16670    0.76840    1.000
    C120     C        0.86170    0.34670    0.72560    1.000
    H84      H        0.84530    0.39560    0.70960    1.000
    C121     C        0.14100    0.15650    0.00590    1.000
    H85      H        0.15740    0.11110    0.99900    1.000
    C122     C        0.91240    0.34480    0.77950    1.000
    H86      H        0.92920    0.39310    0.79750    1.000
    C123     C        0.08930    0.27790    0.03910    1.000
    H87      H        0.07180    0.31650    0.05600    1.000
    C124     C        0.09010    0.15540    0.96610    1.000
    H88      H        0.07310    0.11090    0.93310    1.000
    C125     C        0.00880    0.22000    0.93140    1.000
    H89      H        0.98780    0.18930    0.94950    1.000
    C126     C        0.06670    0.21790    0.97590    1.000
    C127     C        0.33330    0.08460    0.72860    1.000
    C128     C        0.25410    0.14150    0.27700    1.000
    C129     C        0.25760    0.09830    0.36290    1.000
    C130     C        0.25540    0.01610    0.36220    1.000
    H90      H        0.25200    0.98800    0.30900    1.000
    C131     C        0.26350    0.14020    0.44170    1.000
    H91      H        0.26550    0.19580    0.44220    1.000
    C132     C        0.26640    0.09940    0.52070    1.000
    C133     C        0.25360    0.88560    0.43620    1.000
    C134     C        0.28180    0.11020    0.68340    1.000
    H92      H        0.27460    0.14780    0.72330    1.000
    H93      H        0.26040    0.06410    0.67480    1.000
    C135     C        0.26420    0.01590    0.52180    1.000
    H94      H        0.26670    0.98860    0.57490    1.000
    C136     C        0.37450    0.06670    0.76530    1.000
    H95      H        0.40760    0.05240    0.79470    1.000
    C137     C        0.99380    0.27720    0.85900    1.000
    H96      H        0.01570    0.30890    0.84430    1.000
    O26      O        0.25390    0.21720    0.27730    1.000
    O27      O        0.25040    0.85180    0.36450    1.000
    O28      O        0.25130    0.10090    0.20710    1.000
    O29      O        0.25300    0.84760    0.50290    1.000
    C138     C        0.25830    0.97460    0.44110    1.000
    O30      O        0.27110    0.14750    0.59510    1.000
    Cd7      Cd       0.24817    0.71890    0.37496    1.000
    N13      N        0.33170    0.71730    0.44680    1.000
    N14      N        0.66250    0.78140    0.80180    1.000
    C139     C        0.35870    0.77550    0.42450    1.000
    H97      H        0.34140    0.81530    0.38300    1.000
    C140     C        0.63720    0.71620    0.79500    1.000
    H98      H        0.65290    0.67070    0.82750    1.000
    C141     C        0.56380    0.78060    0.69520    1.000
    C142     C        0.58530    0.71360    0.73820    1.000
    H99      H        0.56720    0.66670    0.73160    1.000
    C143     C        0.63830    0.84670    0.77440    1.000
    H100     H        0.65470    0.89560    0.79040    1.000
    C144     C        0.35900    0.65650    0.49410    1.000
    H101     H        0.34260    0.61110    0.50100    1.000
    C145     C        0.58760    0.84480    0.72050    1.000
    H102     H        0.57080    0.89310    0.70250    1.000
    C146     C        0.41070    0.77790    0.46090    1.000
    H103     H        0.42820    0.81650    0.44400    1.000
    C147     C        0.40990    0.65540    0.53390    1.000
    H104     H        0.42690    0.61090    0.56690    1.000
    C148     C        0.49120    0.72000    0.56860    1.000
    H105     H        0.51220    0.68930    0.55050    1.000
    C149     C        0.43330    0.71790    0.52410    1.000
    C150     C        0.16670    0.58460    0.77140    1.000
    C151     C        0.24590    0.64150    0.22300    1.000
    C152     C        0.24240    0.59830    0.13710    1.000
    C153     C        0.24460    0.51610    0.13780    1.000
    H106     H        0.24800    0.48800    0.19100    1.000
    C154     C        0.23650    0.64020    0.05830    1.000
    H107     H        0.23450    0.69580    0.05780    1.000
    C155     C        0.23360    0.59940    0.97930    1.000
    C156     C        0.24640    0.38560    0.06380    1.000
    C157     C        0.21820    0.61020    0.81660    1.000
    H108     H        0.22540    0.64780    0.77670    1.000
    H109     H        0.23960    0.56410    0.82520    1.000
    C158     C        0.23580    0.51590    0.97820    1.000
    H110     H        0.23330    0.48860    0.92510    1.000
    C159     C        0.12550    0.56670    0.73470    1.000
    H111     H        0.09240    0.55240    0.70530    1.000
    C160     C        0.50620    0.77720    0.64100    1.000
    H112     H        0.48430    0.80890    0.65570    1.000
    O31      O        0.24610    0.71720    0.22270    1.000
    O32      O        0.24960    0.35180    0.13550    1.000
    O33      O        0.24870    0.60090    0.29290    1.000
    O34      O        0.24700    0.34760    0.99710    1.000
    C161     C        0.24170    0.47460    0.05890    1.000
    O35      O        0.22890    0.64750    0.90490    1.000
    Cd8      Cd       0.74817    0.21890    0.37496    1.000
    N15      N        0.83170    0.21730    0.44680    1.000
    N16      N        0.16250    0.28140    0.80180    1.000
    C162     C        0.85870    0.27550    0.42450    1.000
    H113     H        0.84140    0.31530    0.38300    1.000
    C163     C        0.13720    0.21620    0.79500    1.000
    H114     H        0.15290    0.17070    0.82750    1.000
    C164     C        0.06380    0.28060    0.69520    1.000
    C165     C        0.08530    0.21360    0.73820    1.000
    H115     H        0.06720    0.16670    0.73160    1.000
    C166     C        0.13830    0.34670    0.77440    1.000
    H116     H        0.15470    0.39560    0.79040    1.000
    C167     C        0.85900    0.15650    0.49410    1.000
    H117     H        0.84260    0.11110    0.50100    1.000
    C168     C        0.08760    0.34480    0.72050    1.000
    H118     H        0.07080    0.39310    0.70250    1.000
    C169     C        0.91070    0.27790    0.46090    1.000
    H119     H        0.92820    0.31650    0.44400    1.000
    C170     C        0.90990    0.15540    0.53390    1.000
    H120     H        0.92690    0.11090    0.56690    1.000
    C171     C        0.99120    0.22000    0.56860    1.000
    H121     H        0.01220    0.18930    0.55050    1.000
    C172     C        0.93330    0.21790    0.52410    1.000
    C173     C        0.66670    0.08460    0.77140    1.000
    C174     C        0.74590    0.14150    0.22300    1.000
    C175     C        0.74240    0.09830    0.13710    1.000
    C176     C        0.74460    0.01610    0.13780    1.000
    H122     H        0.74800    0.98800    0.19100    1.000
    C177     C        0.73650    0.14020    0.05830    1.000
    H123     H        0.73450    0.19580    0.05780    1.000
    C178     C        0.73360    0.09940    0.97930    1.000
    C179     C        0.74640    0.88560    0.06380    1.000
    C180     C        0.71820    0.11020    0.81660    1.000
    H124     H        0.72540    0.14780    0.77670    1.000
    H125     H        0.73960    0.06410    0.82520    1.000
    C181     C        0.73580    0.01590    0.97820    1.000
    H126     H        0.73330    0.98860    0.92510    1.000
    C182     C        0.62550    0.06670    0.73470    1.000
    H127     H        0.59240    0.05240    0.70530    1.000
    C183     C        0.00620    0.27720    0.64100    1.000
    H128     H        0.98430    0.30890    0.65570    1.000
    O36      O        0.74610    0.21720    0.22270    1.000
    O37      O        0.74960    0.85180    0.13550    1.000
    O38      O        0.74870    0.10090    0.29290    1.000
    O39      O        0.74700    0.84760    0.99710    1.000
    C184     C        0.74170    0.97460    0.05890    1.000
    O40      O        0.72890    0.14750    0.90490    1.000
