# CIF file generated by openbabel 3.1.0, see https://openbabel.org
data_I
_chemical_name_common 'XEXLAP_clean'
_cell_length_a 5.0169
_cell_length_b 20.6949
_cell_length_c 24.9851
_cell_angle_alpha 90
_cell_angle_beta 90
_cell_angle_gamma 95.721
_space_group_name_H-M_alt 'P 1'
_space_group_name_Hall 'P 1'
loop_
    _symmetry_equiv_pos_as_xyz
    x,y,z
loop_
    _atom_site_label
    _atom_site_type_symbol
    _atom_site_fract_x
    _atom_site_fract_y
    _atom_site_fract_z
    _atom_site_occupancy
    Mn1      Mn       0.17934    0.06154    0.96045    1.000
    Mn2      Mn       0.32066    0.43846    0.46045    1.000
    Mn3      Mn       0.82066    0.93846    0.03955    1.000
    Mn4      Mn       0.67934    0.56154    0.53955    1.000
    H1       H        0.68160    0.34160    0.40240    1.000
    H2       H        0.69170    0.27920    0.32450    1.000
    H3       H        0.07990    0.36980    0.26320    1.000
    H4       H        0.06970    0.43220    0.34110    1.000
    H5       H        0.94000    0.31270    0.12260    1.000
    H6       H        0.99800    0.24380    0.05120    1.000
    H7       H        0.01460    0.04320    0.14070    1.000
    H8       H        0.93580    0.11770    0.20600    1.000
    H9       H        0.81840    0.15840    0.90240    1.000
    H10      H        0.80830    0.22080    0.82450    1.000
    H11      H        0.42010    0.13020    0.76320    1.000
    H12      H        0.43030    0.06780    0.84110    1.000
    H13      H        0.56000    0.18730    0.62260    1.000
    H14      H        0.50200    0.25620    0.55120    1.000
    H15      H        0.48540    0.45680    0.64070    1.000
    H16      H        0.56420    0.38230    0.70600    1.000
    H17      H        0.31840    0.65840    0.59760    1.000
    H18      H        0.30830    0.72080    0.67550    1.000
    H19      H        0.92010    0.63020    0.73680    1.000
    H20      H        0.93030    0.56780    0.65890    1.000
    H21      H        0.06000    0.68730    0.87740    1.000
    H22      H        0.00200    0.75620    0.94880    1.000
    H23      H        0.98540    0.95680    0.85930    1.000
    H24      H        0.06420    0.88230    0.79400    1.000
    H25      H        0.18160    0.84160    0.09760    1.000
    H26      H        0.19170    0.77920    0.17550    1.000
    H27      H        0.57990    0.86980    0.23680    1.000
    H28      H        0.56970    0.93220    0.15890    1.000
    H29      H        0.44000    0.81270    0.37740    1.000
    H30      H        0.49800    0.74380    0.44880    1.000
    H31      H        0.51460    0.54320    0.35930    1.000
    H32      H        0.43580    0.61770    0.29400    1.000
    C1       C        0.55940    0.34730    0.37420    1.000
    C2       C        0.56540    0.31020    0.32790    1.000
    C3       C        0.38700    0.31860    0.28650    1.000
    C4       C        0.20200    0.36400    0.29150    1.000
    C5       C        0.19600    0.40110    0.33780    1.000
    C6       C        0.58900    0.30030    0.20160    1.000
    C7       C        0.62000    0.25720    0.15470    1.000
    C8       C        0.45280    0.19850    0.14950    1.000
    C9       C        0.24700    0.18420    0.18690    1.000
    C10      C        0.20000    0.22780    0.23190    1.000
    C11      C        0.82500    0.27360    0.11850    1.000
    C12      C        0.85900    0.23210    0.07630    1.000
    C13      C        0.70000    0.17410    0.06910    1.000
    C14      C        0.49960    0.15550    0.10660    1.000
    C15      C        0.33350    0.09530    0.10620    1.000
    C16      C        0.12680    0.08290    0.14290    1.000
    C17      C        0.08200    0.12670    0.18200    1.000
    C18      C        0.39330    0.03720    0.07260    1.000
    C19      C        0.74930    0.13930    0.01750    1.000
    C20      C        0.94060    0.15270    0.87420    1.000
    C21      C        0.93460    0.18980    0.82790    1.000
    C22      C        0.11300    0.18140    0.78650    1.000
    C23      C        0.29800    0.13600    0.79150    1.000
    C24      C        0.30400    0.09890    0.83780    1.000
    C25      C        0.91100    0.19970    0.70160    1.000
    C26      C        0.88000    0.24280    0.65470    1.000
    C27      C        0.04720    0.30150    0.64950    1.000
    C28      C        0.25300    0.31580    0.68690    1.000
    C29      C        0.30000    0.27220    0.73190    1.000
    C30      C        0.67500    0.22640    0.61850    1.000
    C31      C        0.64100    0.26790    0.57630    1.000
    C32      C        0.80000    0.32590    0.56910    1.000
    C33      C        0.00040    0.34450    0.60660    1.000
    C34      C        0.16650    0.40470    0.60620    1.000
    C35      C        0.37320    0.41710    0.64290    1.000
    C36      C        0.41800    0.37330    0.68200    1.000
    C37      C        0.10670    0.46280    0.57260    1.000
    C38      C        0.75070    0.36070    0.51750    1.000
    C39      C        0.44060    0.65270    0.62580    1.000
    C40      C        0.43460    0.68980    0.67210    1.000
    C41      C        0.61300    0.68140    0.71350    1.000
    C42      C        0.79800    0.63600    0.70850    1.000
    C43      C        0.80400    0.59890    0.66220    1.000
    C44      C        0.41100    0.69970    0.79840    1.000
    C45      C        0.38000    0.74280    0.84530    1.000
    C46      C        0.54720    0.80150    0.85050    1.000
    C47      C        0.75300    0.81580    0.81310    1.000
    C48      C        0.80000    0.77220    0.76810    1.000
    C49      C        0.17500    0.72640    0.88150    1.000
    C50      C        0.14100    0.76790    0.92370    1.000
    C51      C        0.30000    0.82590    0.93090    1.000
    C52      C        0.50040    0.84450    0.89340    1.000
    C53      C        0.66650    0.90470    0.89380    1.000
    C54      C        0.87320    0.91710    0.85710    1.000
    C55      C        0.91800    0.87330    0.81800    1.000
    C56      C        0.60670    0.96280    0.92740    1.000
    C57      C        0.25070    0.86070    0.98250    1.000
    C58      C        0.05940    0.84730    0.12580    1.000
    C59      C        0.06540    0.81020    0.17210    1.000
    C60      C        0.88700    0.81860    0.21350    1.000
    C61      C        0.70200    0.86400    0.20850    1.000
    C62      C        0.69600    0.90110    0.16220    1.000
    C63      C        0.08900    0.80030    0.29840    1.000
    C64      C        0.12000    0.75720    0.34530    1.000
    C65      C        0.95280    0.69850    0.35050    1.000
    C66      C        0.74700    0.68420    0.31310    1.000
    C67      C        0.70000    0.72780    0.26810    1.000
    C68      C        0.32500    0.77360    0.38150    1.000
    C69      C        0.35900    0.73210    0.42370    1.000
    C70      C        0.20000    0.67410    0.43090    1.000
    C71      C        0.99960    0.65550    0.39340    1.000
    C72      C        0.83350    0.59530    0.39380    1.000
    C73      C        0.62680    0.58290    0.35710    1.000
    C74      C        0.58200    0.62670    0.31800    1.000
    C75      C        0.89330    0.53720    0.42740    1.000
    C76      C        0.24930    0.63930    0.48250    1.000
    N1       N        0.37470    0.39280    0.37910    1.000
    N2       N        0.39430    0.28080    0.23720    1.000
    N3       N        0.12530    0.10720    0.87910    1.000
    N4       N        0.10570    0.21920    0.73720    1.000
    N5       N        0.62530    0.60720    0.62090    1.000
    N6       N        0.60570    0.71920    0.76280    1.000
    N7       N        0.87470    0.89280    0.12090    1.000
    N8       N        0.89430    0.78080    0.26280    1.000
    O1       O        0.21430    0.00960    0.04200    1.000
    O2       O        0.62000    0.01870    0.07960    1.000
    O3       O        0.55250    0.12180    0.98870    1.000
    O4       O        0.98510    0.13630    0.00600    1.000
    O5       O        0.73490    0.35130    0.20690    1.000
    O6       O        0.01660    0.21800    0.26390    1.000
    O7       O        0.28570    0.49040    0.54200    1.000
    O8       O        0.88000    0.48130    0.57960    1.000
    O9       O        0.94750    0.37820    0.48870    1.000
    O10      O        0.51490    0.36370    0.50600    1.000
    O11      O        0.76510    0.14870    0.70690    1.000
    O12      O        0.48340    0.28200    0.76390    1.000
    O13      O        0.78570    0.99040    0.95800    1.000
    O14      O        0.38000    0.98130    0.92040    1.000
    O15      O        0.44750    0.87820    0.01130    1.000
    O16      O        0.01490    0.86370    0.99400    1.000
    O17      O        0.26510    0.64870    0.79310    1.000
    O18      O        0.98340    0.78200    0.73610    1.000
    O19      O        0.71430    0.50960    0.45800    1.000
    O20      O        0.12000    0.51870    0.42040    1.000
    O21      O        0.05250    0.62180    0.51130    1.000
    O22      O        0.48510    0.63630    0.49400    1.000
    O23      O        0.23490    0.85130    0.29310    1.000
    O24      O        0.51660    0.71800    0.23610    1.000
