# CIF file generated by openbabel 3.1.0, see https://openbabel.org
data_I
_chemical_name_common 'image0'
_cell_length_a 26.733
_cell_length_b 26.733
_cell_length_c 65.261
_cell_angle_alpha 90
_cell_angle_beta 90
_cell_angle_gamma 120
_space_group_name_H-M_alt 'P 1'
_space_group_name_Hall 'P 1'
loop_
    _symmetry_equiv_pos_as_xyz
    x,y,z
loop_
    _atom_site_label
    _atom_site_type_symbol
    _atom_site_fract_x
    _atom_site_fract_y
    _atom_site_fract_z
    _atom_site_occupancy
    I1       I        0.44286    0.69839    0.98008    1.000
    Cu1      Cu       0.35326    0.62147    0.00154    1.000
    N1       N        0.37630    0.56820    0.01606    1.000
    C1       C        0.43060    0.58750    0.02260    1.000
    C2       C        0.33600    0.51740    0.02251    1.000
    C3       C        0.28370    0.66810    0.92878    1.000
    H1       H        0.46060    0.62380    0.01780    1.000
    C4       C        0.44400    0.55710    0.03578    1.000
    C5       C        0.34620    0.48430    0.03594    1.000
    H2       H        0.29780    0.50280    0.01760    1.000
    H3       H        0.28540    0.70290    0.93350    1.000
    C6       C        0.40190    0.50440    0.04298    1.000
    C7       C        0.50550    0.58120    0.04311    1.000
    H4       H        0.31550    0.44790    0.04040    1.000
    H5       H        0.41060    0.48270    0.05240    1.000
    O1       O        0.54350    0.62390    0.03275    1.000
    O2       O        0.51509    0.55840    0.05798    1.000
    Ti1      Ti       0.63288    0.66784    0.03633    1.000
    Ti2      Ti       0.59647    0.57953    0.07273    1.000
    O3       O        0.62480    0.59280    0.04322    1.000
    O4       O        0.62920    0.73800    0.04296    1.000
    O5       O        0.61285    0.66011    0.06590    1.000
    O6       O        0.71600    0.70680    0.04003    1.000
    O7       O        0.56274    0.58623    0.09843    1.000
    C8       C        0.63700    0.55420    0.03106    1.000
    Ti3      Ti       0.60293    0.72219    0.07280    1.000
    C9       C        0.64120    0.78690    0.03063    1.000
    P1       P        0.56756    0.63507    0.11170    1.000
    C10      C        0.69370    0.57090    0.02970    1.000
    C11      C        0.58310    0.50900    0.02150    1.000
    O8       O        0.57000    0.68418    0.09906    1.000
    C12      C        0.69470    0.83260    0.03120    1.000
    C13      C        0.59140    0.77290    0.01730    1.000
    C14      C        0.50340    0.60420    0.12641    1.000
    C15      C        0.50330    0.61360    0.14580    1.000
    C16      C        0.45290    0.56150    0.11820    1.000
    H6       H        0.53930    0.63650    0.15250    1.000
    C17      C        0.45230    0.59140    0.15740    1.000
    C18      C        0.40010    0.53860    0.12860    1.000
    H7       H        0.45370    0.54700    0.10500    1.000
    H8       H        0.45360    0.60620    0.17080    1.000
    C19      C        0.40750    0.55430    0.15080    1.000
    H9       H        0.38130    0.49720    0.12770    1.000
    H10      H        0.37570    0.53420    0.15990    1.000
    I2       I        0.10952    0.03172    0.31341    1.000
    Cu2      Cu       0.01993    0.95480    0.33487    1.000
    N2       N        0.04297    0.90153    0.34939    1.000
    C20      C        0.09727    0.92083    0.35593    1.000
    C21      C        0.00267    0.85073    0.35584    1.000
    C22      C        0.95037    0.00143    0.26211    1.000
    H11      H        0.12727    0.95713    0.35113    1.000
    C23      C        0.11067    0.89043    0.36911    1.000
    C24      C        0.01287    0.81763    0.36927    1.000
    H12      H        0.96447    0.83613    0.35093    1.000
    H13      H        0.95207    0.03623    0.26683    1.000
    C25      C        0.06857    0.83773    0.37631    1.000
    C26      C        0.17217    0.91453    0.37644    1.000
    H14      H        0.98217    0.78123    0.37373    1.000
    H15      H        0.07727    0.81603    0.38573    1.000
    O9       O        0.21017    0.95723    0.36608    1.000
    O10      O        0.18176    0.89173    0.39131    1.000
    Ti4      Ti       0.29955    0.00117    0.36967    1.000
    Ti5      Ti       0.26314    0.91286    0.40606    1.000
    O11      O        0.29147    0.92613    0.37655    1.000
    O12      O        0.29587    0.07133    0.37629    1.000
    O13      O        0.27952    0.99344    0.39923    1.000
    O14      O        0.38267    0.04013    0.37336    1.000
    O15      O        0.22941    0.91956    0.43176    1.000
    C27      C        0.30367    0.88753    0.36439    1.000
    Ti6      Ti       0.26960    0.05552    0.40614    1.000
    C28      C        0.30787    0.12023    0.36396    1.000
    P2       P        0.23423    0.96840    0.44503    1.000
    C29      C        0.36037    0.90423    0.36303    1.000
    C30      C        0.24977    0.84233    0.35483    1.000
    O16      O        0.23667    0.01751    0.43239    1.000
    C31      C        0.36137    0.16593    0.36453    1.000
    C32      C        0.25807    0.10623    0.35063    1.000
    C33      C        0.17007    0.93753    0.45974    1.000
    C34      C        0.16997    0.94693    0.47913    1.000
    C35      C        0.11957    0.89483    0.45153    1.000
    H16      H        0.20597    0.96983    0.48583    1.000
    C36      C        0.11897    0.92473    0.49073    1.000
    C37      C        0.06677    0.87193    0.46193    1.000
    H17      H        0.12037    0.88033    0.43833    1.000
    H18      H        0.12027    0.93953    0.50413    1.000
    C38      C        0.07417    0.88763    0.48413    1.000
    H19      H        0.04797    0.83053    0.46103    1.000
    H20      H        0.04237    0.86753    0.49323    1.000
    I3       I        0.77619    0.36506    0.64674    1.000
    Cu3      Cu       0.68659    0.28814    0.66820    1.000
    N3       N        0.70963    0.23487    0.68273    1.000
    C39      C        0.76393    0.25417    0.68927    1.000
    C40      C        0.66933    0.18407    0.68918    1.000
    C41      C        0.61703    0.33477    0.59545    1.000
    H21      H        0.79393    0.29047    0.68447    1.000
    C42      C        0.77733    0.22377    0.70245    1.000
    C43      C        0.67953    0.15097    0.70261    1.000
    H22      H        0.63113    0.16947    0.68427    1.000
    H23      H        0.61873    0.36957    0.60017    1.000
    C44      C        0.73523    0.17107    0.70965    1.000
    C45      C        0.83883    0.24787    0.70978    1.000
    H24      H        0.64883    0.11457    0.70707    1.000
    H25      H        0.74393    0.14937    0.71907    1.000
    O17      O        0.87683    0.29057    0.69942    1.000
    O18      O        0.84842    0.22507    0.72465    1.000
    Ti7      Ti       0.96621    0.33451    0.70300    1.000
    Ti8      Ti       0.92980    0.24620    0.73940    1.000
    O19      O        0.95813    0.25947    0.70989    1.000
    O20      O        0.96253    0.40467    0.70963    1.000
    O21      O        0.94618    0.32678    0.73257    1.000
    O22      O        0.04933    0.37347    0.70670    1.000
    O23      O        0.89607    0.25290    0.76510    1.000
    C46      C        0.97033    0.22087    0.69773    1.000
    Ti9      Ti       0.93626    0.38886    0.73947    1.000
    C47      C        0.97453    0.45357    0.69730    1.000
    P3       P        0.90089    0.30174    0.77837    1.000
    C48      C        0.02703    0.23757    0.69637    1.000
    C49      C        0.91643    0.17567    0.68817    1.000
    O24      O        0.90333    0.35085    0.76573    1.000
    C50      C        0.02803    0.49927    0.69787    1.000
    C51      C        0.92473    0.43957    0.68397    1.000
    C52      C        0.83673    0.27087    0.79308    1.000
    C53      C        0.83663    0.28027    0.81247    1.000
    C54      C        0.78623    0.22817    0.78487    1.000
    H26      H        0.87263    0.30317    0.81917    1.000
    C55      C        0.78563    0.25807    0.82407    1.000
    C56      C        0.73343    0.20527    0.79527    1.000
    H27      H        0.78703    0.21367    0.77167    1.000
    H28      H        0.78693    0.27287    0.83747    1.000
    C57      C        0.74083    0.22097    0.81747    1.000
    H29      H        0.71463    0.16387    0.79437    1.000
    H30      H        0.70903    0.20087    0.82657    1.000
    I4       I        0.30161    0.74447    0.98008    1.000
    Cu4      Cu       0.37853    0.73179    0.00154    1.000
    N4       N        0.43180    0.80810    0.01606    1.000
    C58      C        0.41250    0.84310    0.02260    1.000
    C59      C        0.48260    0.81860    0.02251    1.000
    C60      C        0.33190    0.61560    0.92878    1.000
    H31      H        0.37620    0.83680    0.01780    1.000
    C61      C        0.44290    0.88690    0.03578    1.000
    C62      C        0.51570    0.86190    0.03594    1.000
    H32      H        0.49720    0.79500    0.01760    1.000
    H33      H        0.29710    0.58250    0.93350    1.000
    C63      C        0.49560    0.89750    0.04298    1.000
    C64      C        0.41880    0.92430    0.04311    1.000
    H34      H        0.55210    0.86760    0.04040    1.000
    H35      H        0.51730    0.92790    0.05240    1.000
    O25      O        0.37610    0.91960    0.03275    1.000
    O26      O        0.44160    0.95669    0.05798    1.000
    Ti10     Ti       0.33216    0.96504    0.03633    1.000
    Ti11     Ti       0.42047    0.01694    0.07273    1.000
    O27      O        0.40720    0.03200    0.04322    1.000
    O28      O        0.26200    0.89120    0.04296    1.000
    O29      O        0.33989    0.95274    0.06590    1.000
    O30      O        0.29320    0.00920    0.04003    1.000
    O31      O        0.41377    0.97651    0.09843    1.000
    C65      C        0.44580    0.08280    0.03106    1.000
    Ti12     Ti       0.27781    0.88074    0.07280    1.000
    C66      C        0.21310    0.85430    0.03063    1.000
    P4       P        0.36493    0.93249    0.11170    1.000
    C67      C        0.42910    0.12280    0.02970    1.000
    C68      C        0.49100    0.07410    0.02150    1.000
    O32      O        0.31582    0.88582    0.09906    1.000
    C69      C        0.16740    0.86210    0.03120    1.000
    C70      C        0.22710    0.81850    0.01730    1.000
    C71      C        0.39580    0.89920    0.12641    1.000
    C72      C        0.38640    0.88970    0.14580    1.000
    C73      C        0.43850    0.89140    0.11820    1.000
    H36      H        0.36350    0.90280    0.15250    1.000
    C74      C        0.40860    0.86090    0.15740    1.000
    C75      C        0.46140    0.86150    0.12860    1.000
    H37      H        0.45300    0.90670    0.10500    1.000
    H38      H        0.39380    0.84740    0.17080    1.000
    C76      C        0.44570    0.85320    0.15080    1.000
    H39      H        0.50280    0.88410    0.12770    1.000
    H40      H        0.46580    0.84150    0.15990    1.000
    I5       I        0.96828    0.07780    0.31341    1.000
    Cu5      Cu       0.04520    0.06512    0.33487    1.000
    N5       N        0.09847    0.14143    0.34939    1.000
    C77      C        0.07917    0.17643    0.35593    1.000
    C78      C        0.14927    0.15193    0.35584    1.000
    C79      C        0.99857    0.94893    0.26211    1.000
    H41      H        0.04287    0.17013    0.35113    1.000
    C80      C        0.10957    0.22023    0.36911    1.000
    C81      C        0.18237    0.19523    0.36927    1.000
    H42      H        0.16387    0.12833    0.35093    1.000
    H43      H        0.96377    0.91583    0.26683    1.000
    C82      C        0.16227    0.23083    0.37631    1.000
    C83      C        0.08547    0.25763    0.37644    1.000
    H44      H        0.21877    0.20093    0.37373    1.000
    H45      H        0.18397    0.26123    0.38573    1.000
    O33      O        0.04277    0.25293    0.36608    1.000
    O34      O        0.10827    0.29002    0.39131    1.000
    Ti13     Ti       0.99883    0.29837    0.36967    1.000
    Ti14     Ti       0.08714    0.35027    0.40606    1.000
    O35      O        0.07387    0.36533    0.37655    1.000
    O36      O        0.92867    0.22453    0.37629    1.000
    O37      O        0.00656    0.28607    0.39923    1.000
    O38      O        0.95987    0.34253    0.37336    1.000
    O39      O        0.08044    0.30984    0.43176    1.000
    C84      C        0.11247    0.41613    0.36439    1.000
    Ti15     Ti       0.94448    0.21407    0.40614    1.000
    C85      C        0.87977    0.18763    0.36396    1.000
    P5       P        0.03160    0.26582    0.44503    1.000
    C86      C        0.09577    0.45613    0.36303    1.000
    C87      C        0.15767    0.40743    0.35483    1.000
    O40      O        0.98249    0.21915    0.43239    1.000
    C88      C        0.83407    0.19543    0.36453    1.000
    C89      C        0.89377    0.15183    0.35063    1.000
    C90      C        0.06247    0.23253    0.45974    1.000
    C91      C        0.05307    0.22303    0.47913    1.000
    C92      C        0.10517    0.22473    0.45153    1.000
    H46      H        0.03017    0.23613    0.48583    1.000
    C93      C        0.07527    0.19423    0.49073    1.000
    C94      C        0.12807    0.19483    0.46193    1.000
    H47      H        0.11967    0.24003    0.43833    1.000
    H48      H        0.06047    0.18073    0.50413    1.000
    C95      C        0.11237    0.18653    0.48413    1.000
    H49      H        0.16947    0.21743    0.46103    1.000
    H50      H        0.13247    0.17483    0.49323    1.000
    I6       I        0.63494    0.41113    0.64674    1.000
    Cu6      Cu       0.71186    0.39846    0.66820    1.000
    N6       N        0.76513    0.47477    0.68273    1.000
    C96      C        0.74583    0.50977    0.68927    1.000
    C97      C        0.81593    0.48527    0.68918    1.000
    C98      C        0.66523    0.28227    0.59545    1.000
    H51      H        0.70953    0.50347    0.68447    1.000
    C99      C        0.77623    0.55357    0.70245    1.000
    C100     C        0.84903    0.52857    0.70261    1.000
    H52      H        0.83053    0.46167    0.68427    1.000
    H53      H        0.63043    0.24917    0.60017    1.000
    C101     C        0.82893    0.56417    0.70965    1.000
    C102     C        0.75213    0.59097    0.70978    1.000
    H54      H        0.88543    0.53427    0.70707    1.000
    H55      H        0.85063    0.59457    0.71907    1.000
    O41      O        0.70943    0.58627    0.69942    1.000
    O42      O        0.77493    0.62336    0.72465    1.000
    Ti16     Ti       0.66549    0.63171    0.70300    1.000
    Ti17     Ti       0.75380    0.68361    0.73940    1.000
    O43      O        0.74053    0.69867    0.70989    1.000
    O44      O        0.59533    0.55787    0.70963    1.000
    O45      O        0.67322    0.61941    0.73257    1.000
    O46      O        0.62653    0.67587    0.70670    1.000
    O47      O        0.74710    0.64318    0.76510    1.000
    C103     C        0.77913    0.74947    0.69773    1.000
    Ti18     Ti       0.61114    0.54741    0.73947    1.000
    C104     C        0.54643    0.52097    0.69730    1.000
    P6       P        0.69826    0.59916    0.77837    1.000
    C105     C        0.76243    0.78947    0.69637    1.000
    C106     C        0.82433    0.74077    0.68817    1.000
    O48      O        0.64915    0.55249    0.76573    1.000
    C107     C        0.50073    0.52877    0.69787    1.000
    C108     C        0.56043    0.48517    0.68397    1.000
    C109     C        0.72913    0.56587    0.79308    1.000
    C110     C        0.71973    0.55637    0.81247    1.000
    C111     C        0.77183    0.55807    0.78487    1.000
    H56      H        0.69683    0.56947    0.81917    1.000
    C112     C        0.74193    0.52757    0.82407    1.000
    C113     C        0.79473    0.52817    0.79527    1.000
    H57      H        0.78633    0.57337    0.77167    1.000
    H58      H        0.72713    0.51407    0.83747    1.000
    C114     C        0.77903    0.51987    0.81747    1.000
    H59      H        0.83613    0.55077    0.79437    1.000
    H60      H        0.79913    0.50817    0.82657    1.000
    I7       I        0.25553    0.55714    0.98008    1.000
    Cu7      Cu       0.26821    0.64674    0.00154    1.000
    N7       N        0.19190    0.62370    0.01606    1.000
    C115     C        0.15690    0.56940    0.02260    1.000
    C116     C        0.18140    0.66400    0.02251    1.000
    C117     C        0.38440    0.71630    0.92878    1.000
    H61      H        0.16320    0.53940    0.01780    1.000
    C118     C        0.11310    0.55600    0.03578    1.000
    C119     C        0.13810    0.65380    0.03594    1.000
    H62      H        0.20500    0.70220    0.01760    1.000
    H63      H        0.41750    0.71460    0.93350    1.000
    C120     C        0.10250    0.59810    0.04298    1.000
    C121     C        0.07570    0.49450    0.04311    1.000
    H64      H        0.13240    0.68450    0.04040    1.000
    H65      H        0.07210    0.58940    0.05240    1.000
    O49      O        0.08040    0.45650    0.03275    1.000
    O50      O        0.04331    0.48491    0.05798    1.000
    Ti19     Ti       0.03496    0.36712    0.03633    1.000
    Ti20     Ti       0.98306    0.40353    0.07273    1.000
    O51      O        0.96800    0.37520    0.04322    1.000
    O52      O        0.10880    0.37080    0.04296    1.000
    O53      O        0.04726    0.38715    0.06590    1.000
    O54      O        0.99080    0.28400    0.04003    1.000
    O55      O        0.02349    0.43726    0.09843    1.000
    C122     C        0.91720    0.36300    0.03106    1.000
    Ti21     Ti       0.11926    0.39707    0.07280    1.000
    C123     C        0.14570    0.35880    0.03063    1.000
    P7       P        0.06751    0.43244    0.11170    1.000
    C124     C        0.87720    0.30630    0.02970    1.000
    C125     C        0.92590    0.41690    0.02150    1.000
    O56      O        0.11418    0.43000    0.09906    1.000
    C126     C        0.13790    0.30530    0.03120    1.000
    C127     C        0.18150    0.40860    0.01730    1.000
    C128     C        0.10080    0.49660    0.12641    1.000
    C129     C        0.11030    0.49670    0.14580    1.000
    C130     C        0.10860    0.54710    0.11820    1.000
    H66      H        0.09720    0.46070    0.15250    1.000
    C131     C        0.13910    0.54770    0.15740    1.000
    C132     C        0.13850    0.59990    0.12860    1.000
    H67      H        0.09330    0.54630    0.10500    1.000
    H68      H        0.15260    0.54640    0.17080    1.000
    C133     C        0.14680    0.59250    0.15080    1.000
    H69      H        0.11590    0.61870    0.12770    1.000
    H70      H        0.15850    0.62430    0.15990    1.000
    I8       I        0.92220    0.89048    0.31341    1.000
    Cu8      Cu       0.93488    0.98007    0.33487    1.000
    N8       N        0.85857    0.95703    0.34939    1.000
    C134     C        0.82357    0.90273    0.35593    1.000
    C135     C        0.84807    0.99733    0.35584    1.000
    C136     C        0.05107    0.04963    0.26211    1.000
    H71      H        0.82987    0.87273    0.35113    1.000
    C137     C        0.77977    0.88933    0.36911    1.000
    C138     C        0.80477    0.98713    0.36927    1.000
    H72      H        0.87167    0.03553    0.35093    1.000
    H73      H        0.08417    0.04793    0.26683    1.000
    C139     C        0.76917    0.93143    0.37631    1.000
    C140     C        0.74237    0.82783    0.37644    1.000
    H74      H        0.79907    0.01783    0.37373    1.000
    H75      H        0.73877    0.92273    0.38573    1.000
    O57      O        0.74707    0.78983    0.36608    1.000
    O58      O        0.70998    0.81824    0.39131    1.000
    Ti22     Ti       0.70163    0.70045    0.36967    1.000
    Ti23     Ti       0.64973    0.73686    0.40606    1.000
    O59      O        0.63467    0.70853    0.37655    1.000
    O60      O        0.77547    0.70413    0.37629    1.000
    O61      O        0.71393    0.72048    0.39923    1.000
    O62      O        0.65747    0.61733    0.37336    1.000
    O63      O        0.69016    0.77059    0.43176    1.000
    C141     C        0.58387    0.69633    0.36439    1.000
    Ti24     Ti       0.78593    0.73040    0.40614    1.000
    C142     C        0.81237    0.69213    0.36396    1.000
    P8       P        0.73418    0.76577    0.44503    1.000
    C143     C        0.54387    0.63963    0.36303    1.000
    C144     C        0.59257    0.75023    0.35483    1.000
    O64      O        0.78085    0.76333    0.43239    1.000
    C145     C        0.80457    0.63863    0.36453    1.000
    C146     C        0.84817    0.74193    0.35063    1.000
    C147     C        0.76747    0.82993    0.45974    1.000
    C148     C        0.77697    0.83003    0.47913    1.000
    C149     C        0.77527    0.88043    0.45153    1.000
    H76      H        0.76387    0.79403    0.48583    1.000
    C150     C        0.80577    0.88103    0.49073    1.000
    C151     C        0.80517    0.93323    0.46193    1.000
    H77      H        0.75997    0.87963    0.43833    1.000
    H78      H        0.81927    0.87973    0.50413    1.000
    C152     C        0.81347    0.92583    0.48413    1.000
    H79      H        0.78257    0.95203    0.46103    1.000
    H80      H        0.82517    0.95763    0.49323    1.000
    I9       I        0.58887    0.22381    0.64674    1.000
    Cu9      Cu       0.60154    0.31341    0.66820    1.000
    N9       N        0.52523    0.29037    0.68273    1.000
    C153     C        0.49023    0.23607    0.68927    1.000
    C154     C        0.51473    0.33067    0.68918    1.000
    C155     C        0.71773    0.38297    0.59545    1.000
    H81      H        0.49653    0.20607    0.68447    1.000
    C156     C        0.44643    0.22267    0.70245    1.000
    C157     C        0.47143    0.32047    0.70261    1.000
    H82      H        0.53833    0.36887    0.68427    1.000
    H83      H        0.75083    0.38127    0.60017    1.000
    C158     C        0.43583    0.26477    0.70965    1.000
    C159     C        0.40903    0.16117    0.70978    1.000
    H84      H        0.46573    0.35117    0.70707    1.000
    H85      H        0.40543    0.25607    0.71907    1.000
    O65      O        0.41373    0.12317    0.69942    1.000
    O66      O        0.37664    0.15158    0.72465    1.000
    Ti25     Ti       0.36829    0.03379    0.70300    1.000
    Ti26     Ti       0.31639    0.07020    0.73940    1.000
    O67      O        0.30133    0.04187    0.70989    1.000
    O68      O        0.44213    0.03747    0.70963    1.000
    O69      O        0.38059    0.05382    0.73257    1.000
    O70      O        0.32413    0.95067    0.70670    1.000
    O71      O        0.35682    0.10393    0.76510    1.000
    C160     C        0.25053    0.02967    0.69773    1.000
    Ti27     Ti       0.45259    0.06374    0.73947    1.000
    C161     C        0.47903    0.02547    0.69730    1.000
    P9       P        0.40084    0.09911    0.77837    1.000
    C162     C        0.21053    0.97297    0.69637    1.000
    C163     C        0.25923    0.08357    0.68817    1.000
    O72      O        0.44751    0.09667    0.76573    1.000
    C164     C        0.47123    0.97197    0.69787    1.000
    C165     C        0.51483    0.07527    0.68397    1.000
    C166     C        0.43413    0.16327    0.79308    1.000
    C167     C        0.44363    0.16337    0.81247    1.000
    C168     C        0.44193    0.21377    0.78487    1.000
    H86      H        0.43053    0.12737    0.81917    1.000
    C169     C        0.47243    0.21437    0.82407    1.000
    C170     C        0.47183    0.26657    0.79527    1.000
    H87      H        0.42663    0.21297    0.77167    1.000
    H88      H        0.48593    0.21307    0.83747    1.000
    C171     C        0.48013    0.25917    0.81747    1.000
    H89      H        0.44923    0.28537    0.79437    1.000
    H90      H        0.49183    0.29097    0.82657    1.000
    I10      I        0.69839    0.44286    0.51992    1.000
    Cu10     Cu       0.62147    0.35326    0.49846    1.000
    N10      N        0.56820    0.37630    0.48394    1.000
    C172     C        0.58750    0.43060    0.47740    1.000
    C173     C        0.51740    0.33600    0.47749    1.000
    C174     C        0.66810    0.28370    0.57122    1.000
    H91      H        0.62380    0.46060    0.48220    1.000
    C175     C        0.55710    0.44400    0.46422    1.000
    C176     C        0.48430    0.34620    0.46406    1.000
    H92      H        0.50280    0.29780    0.48240    1.000
    H93      H        0.70290    0.28540    0.56650    1.000
    C177     C        0.50440    0.40190    0.45702    1.000
    C178     C        0.58120    0.50550    0.45689    1.000
    H94      H        0.44790    0.31550    0.45960    1.000
    H95      H        0.48270    0.41060    0.44760    1.000
    O73      O        0.62390    0.54350    0.46725    1.000
    O74      O        0.55840    0.51509    0.44202    1.000
    Ti28     Ti       0.66784    0.63288    0.46367    1.000
    Ti29     Ti       0.57953    0.59647    0.42727    1.000
    O75      O        0.59280    0.62480    0.45678    1.000
    O76      O        0.73800    0.62920    0.45704    1.000
    O77      O        0.66011    0.61285    0.43410    1.000
    O78      O        0.70680    0.71600    0.45997    1.000
    O79      O        0.58623    0.56274    0.40157    1.000
    C179     C        0.55420    0.63700    0.46894    1.000
    Ti30     Ti       0.72219    0.60293    0.42720    1.000
    C180     C        0.78690    0.64120    0.46937    1.000
    P10      P        0.63507    0.56756    0.38830    1.000
    C181     C        0.57090    0.69370    0.47030    1.000
    C182     C        0.50900    0.58310    0.47850    1.000
    O80      O        0.68418    0.57000    0.40094    1.000
    C183     C        0.83260    0.69470    0.46880    1.000
    C184     C        0.77290    0.59140    0.48270    1.000
    C185     C        0.60420    0.50340    0.37359    1.000
    C186     C        0.61360    0.50330    0.35420    1.000
    C187     C        0.56150    0.45290    0.38180    1.000
    H96      H        0.63650    0.53930    0.34750    1.000
    C188     C        0.59140    0.45230    0.34260    1.000
    C189     C        0.53860    0.40010    0.37140    1.000
    H97      H        0.54700    0.45370    0.39500    1.000
    H98      H        0.60620    0.45360    0.32920    1.000
    C190     C        0.55430    0.40750    0.34920    1.000
    H99      H        0.49720    0.38130    0.37230    1.000
    H100     H        0.53420    0.37570    0.34010    1.000
    I11      I        0.36506    0.77619    0.85326    1.000
    Cu11     Cu       0.28814    0.68659    0.83180    1.000
    N11      N        0.23487    0.70963    0.81727    1.000
    C191     C        0.25417    0.76393    0.81073    1.000
    C192     C        0.18407    0.66933    0.81082    1.000
    C193     C        0.33477    0.61703    0.90455    1.000
    H101     H        0.29047    0.79393    0.81553    1.000
    C194     C        0.22377    0.77733    0.79755    1.000
    C195     C        0.15097    0.67953    0.79739    1.000
    H102     H        0.16947    0.63113    0.81573    1.000
    H103     H        0.36957    0.61873    0.89983    1.000
    C196     C        0.17107    0.73523    0.79035    1.000
    C197     C        0.24787    0.83883    0.79022    1.000
    H104     H        0.11457    0.64883    0.79293    1.000
    H105     H        0.14937    0.74393    0.78093    1.000
    O81      O        0.29057    0.87683    0.80058    1.000
    O82      O        0.22507    0.84842    0.77535    1.000
    Ti31     Ti       0.33451    0.96621    0.79700    1.000
    Ti32     Ti       0.24620    0.92980    0.76060    1.000
    O83      O        0.25947    0.95813    0.79011    1.000
    O84      O        0.40467    0.96253    0.79037    1.000
    O85      O        0.32678    0.94618    0.76743    1.000
    O86      O        0.37347    0.04933    0.79330    1.000
    O87      O        0.25290    0.89607    0.73490    1.000
    C198     C        0.22087    0.97033    0.80227    1.000
    Ti33     Ti       0.38886    0.93626    0.76053    1.000
    C199     C        0.45357    0.97453    0.80270    1.000
    P11      P        0.30174    0.90089    0.72163    1.000
    C200     C        0.23757    0.02703    0.80363    1.000
    C201     C        0.17567    0.91643    0.81183    1.000
    O88      O        0.35085    0.90333    0.73427    1.000
    C202     C        0.49927    0.02803    0.80213    1.000
    C203     C        0.43957    0.92473    0.81603    1.000
    C204     C        0.27087    0.83673    0.70692    1.000
    C205     C        0.28027    0.83663    0.68753    1.000
    C206     C        0.22817    0.78623    0.71513    1.000
    H106     H        0.30317    0.87263    0.68083    1.000
    C207     C        0.25807    0.78563    0.67593    1.000
    C208     C        0.20527    0.73343    0.70473    1.000
    H107     H        0.21367    0.78703    0.72833    1.000
    H108     H        0.27287    0.78693    0.66253    1.000
    C209     C        0.22097    0.74083    0.68253    1.000
    H109     H        0.16387    0.71463    0.70563    1.000
    H110     H        0.20087    0.70903    0.67343    1.000
    I12      I        0.03172    0.10952    0.18659    1.000
    Cu12     Cu       0.95480    0.01993    0.16513    1.000
    N12      N        0.90153    0.04297    0.15061    1.000
    C210     C        0.92083    0.09727    0.14407    1.000
    C211     C        0.85073    0.00267    0.14416    1.000
    C212     C        0.00143    0.95037    0.23789    1.000
    H111     H        0.95713    0.12727    0.14887    1.000
    C213     C        0.89043    0.11067    0.13089    1.000
    C214     C        0.81763    0.01287    0.13073    1.000
    H112     H        0.83613    0.96447    0.14907    1.000
    H113     H        0.03623    0.95207    0.23317    1.000
    C215     C        0.83773    0.06857    0.12369    1.000
    C216     C        0.91453    0.17217    0.12356    1.000
    H114     H        0.78123    0.98217    0.12627    1.000
    H115     H        0.81603    0.07727    0.11427    1.000
    O89      O        0.95723    0.21017    0.13392    1.000
    O90      O        0.89173    0.18176    0.10869    1.000
    Ti34     Ti       0.00117    0.29955    0.13033    1.000
    Ti35     Ti       0.91286    0.26314    0.09394    1.000
    O91      O        0.92613    0.29147    0.12345    1.000
    O92      O        0.07133    0.29587    0.12371    1.000
    O93      O        0.99344    0.27952    0.10077    1.000
    O94      O        0.04013    0.38267    0.12664    1.000
    O95      O        0.91956    0.22941    0.06824    1.000
    C217     C        0.88753    0.30367    0.13561    1.000
    Ti36     Ti       0.05552    0.26960    0.09386    1.000
    C218     C        0.12023    0.30787    0.13604    1.000
    P12      P        0.96840    0.23423    0.05497    1.000
    C219     C        0.90423    0.36037    0.13697    1.000
    C220     C        0.84233    0.24977    0.14517    1.000
    O96      O        0.01751    0.23667    0.06761    1.000
    C221     C        0.16593    0.36137    0.13547    1.000
    C222     C        0.10623    0.25807    0.14937    1.000
    C223     C        0.93753    0.17007    0.04026    1.000
    C224     C        0.94693    0.16997    0.02087    1.000
    C225     C        0.89483    0.11957    0.04847    1.000
    H116     H        0.96983    0.20597    0.01417    1.000
    C226     C        0.92473    0.11897    0.00927    1.000
    C227     C        0.87193    0.06677    0.03807    1.000
    H117     H        0.88033    0.12037    0.06167    1.000
    H118     H        0.93953    0.12027    0.99587    1.000
    C228     C        0.88763    0.07417    0.01587    1.000
    H119     H        0.83053    0.04797    0.03897    1.000
    H120     H        0.86753    0.04237    0.00677    1.000
    I13      I        0.74447    0.30161    0.51992    1.000
    Cu13     Cu       0.73179    0.37853    0.49846    1.000
    N13      N        0.80810    0.43180    0.48394    1.000
    C229     C        0.84310    0.41250    0.47740    1.000
    C230     C        0.81860    0.48260    0.47749    1.000
    C231     C        0.61560    0.33190    0.57122    1.000
    H121     H        0.83680    0.37620    0.48220    1.000
    C232     C        0.88690    0.44290    0.46422    1.000
    C233     C        0.86190    0.51570    0.46406    1.000
    H122     H        0.79500    0.49720    0.48240    1.000
    H123     H        0.58250    0.29710    0.56650    1.000
    C234     C        0.89750    0.49560    0.45702    1.000
    C235     C        0.92430    0.41880    0.45689    1.000
    H124     H        0.86760    0.55210    0.45960    1.000
    H125     H        0.92790    0.51730    0.44760    1.000
    O97      O        0.91960    0.37610    0.46725    1.000
    O98      O        0.95669    0.44160    0.44202    1.000
    Ti37     Ti       0.96504    0.33216    0.46367    1.000
    Ti38     Ti       0.01694    0.42047    0.42727    1.000
    O99      O        0.03200    0.40720    0.45678    1.000
    O100     O        0.89120    0.26200    0.45704    1.000
    O101     O        0.95274    0.33989    0.43410    1.000
    O102     O        0.00920    0.29320    0.45997    1.000
    O103     O        0.97651    0.41377    0.40157    1.000
    C236     C        0.08280    0.44580    0.46894    1.000
    Ti39     Ti       0.88074    0.27781    0.42720    1.000
    C237     C        0.85430    0.21310    0.46937    1.000
    P13      P        0.93249    0.36493    0.38830    1.000
    C238     C        0.12280    0.42910    0.47030    1.000
    C239     C        0.07410    0.49100    0.47850    1.000
    O104     O        0.88582    0.31582    0.40094    1.000
    C240     C        0.86210    0.16740    0.46880    1.000
    C241     C        0.81850    0.22710    0.48270    1.000
    C242     C        0.89920    0.39580    0.37359    1.000
    C243     C        0.88970    0.38640    0.35420    1.000
    C244     C        0.89140    0.43850    0.38180    1.000
    H126     H        0.90280    0.36350    0.34750    1.000
    C245     C        0.86090    0.40860    0.34260    1.000
    C246     C        0.86150    0.46140    0.37140    1.000
    H127     H        0.90670    0.45300    0.39500    1.000
    H128     H        0.84740    0.39380    0.32920    1.000
    C247     C        0.85320    0.44570    0.34920    1.000
    H129     H        0.88410    0.50280    0.37230    1.000
    H130     H        0.84150    0.46580    0.34010    1.000
    I14      I        0.41113    0.63494    0.85326    1.000
    Cu14     Cu       0.39846    0.71186    0.83180    1.000
    N14      N        0.47477    0.76513    0.81727    1.000
    C248     C        0.50977    0.74583    0.81073    1.000
    C249     C        0.48527    0.81593    0.81082    1.000
    C250     C        0.28227    0.66523    0.90455    1.000
    H131     H        0.50347    0.70953    0.81553    1.000
    C251     C        0.55357    0.77623    0.79755    1.000
    C252     C        0.52857    0.84903    0.79739    1.000
    H132     H        0.46167    0.83053    0.81573    1.000
    H133     H        0.24917    0.63043    0.89983    1.000
    C253     C        0.56417    0.82893    0.79035    1.000
    C254     C        0.59097    0.75213    0.79022    1.000
    H134     H        0.53427    0.88543    0.79293    1.000
    H135     H        0.59457    0.85063    0.78093    1.000
    O105     O        0.58627    0.70943    0.80058    1.000
    O106     O        0.62336    0.77493    0.77535    1.000
    Ti40     Ti       0.63171    0.66549    0.79700    1.000
    Ti41     Ti       0.68361    0.75380    0.76060    1.000
    O107     O        0.69867    0.74053    0.79011    1.000
    O108     O        0.55787    0.59533    0.79037    1.000
    O109     O        0.61941    0.67322    0.76743    1.000
    O110     O        0.67587    0.62653    0.79330    1.000
    O111     O        0.64318    0.74710    0.73490    1.000
    C255     C        0.74947    0.77913    0.80227    1.000
    Ti42     Ti       0.54741    0.61114    0.76053    1.000
    C256     C        0.52097    0.54643    0.80270    1.000
    P14      P        0.59916    0.69826    0.72163    1.000
    C257     C        0.78947    0.76243    0.80363    1.000
    C258     C        0.74077    0.82433    0.81183    1.000
    O112     O        0.55249    0.64915    0.73427    1.000
    C259     C        0.52877    0.50073    0.80213    1.000
    C260     C        0.48517    0.56043    0.81603    1.000
    C261     C        0.56587    0.72913    0.70692    1.000
    C262     C        0.55637    0.71973    0.68753    1.000
    C263     C        0.55807    0.77183    0.71513    1.000
    H136     H        0.56947    0.69683    0.68083    1.000
    C264     C        0.52757    0.74193    0.67593    1.000
    C265     C        0.52817    0.79473    0.70473    1.000
    H137     H        0.57337    0.78633    0.72833    1.000
    H138     H        0.51407    0.72713    0.66253    1.000
    C266     C        0.51987    0.77903    0.68253    1.000
    H139     H        0.55077    0.83613    0.70563    1.000
    H140     H        0.50817    0.79913    0.67343    1.000
    I15      I        0.07780    0.96828    0.18659    1.000
    Cu15     Cu       0.06512    0.04520    0.16513    1.000
    N15      N        0.14143    0.09847    0.15061    1.000
    C267     C        0.17643    0.07917    0.14407    1.000
    C268     C        0.15193    0.14927    0.14416    1.000
    C269     C        0.94893    0.99857    0.23789    1.000
    H141     H        0.17013    0.04287    0.14887    1.000
    C270     C        0.22023    0.10957    0.13089    1.000
    C271     C        0.19523    0.18237    0.13073    1.000
    H142     H        0.12833    0.16387    0.14907    1.000
    H143     H        0.91583    0.96377    0.23317    1.000
    C272     C        0.23083    0.16227    0.12369    1.000
    C273     C        0.25763    0.08547    0.12356    1.000
    H144     H        0.20093    0.21877    0.12627    1.000
    H145     H        0.26123    0.18397    0.11427    1.000
    O113     O        0.25293    0.04277    0.13392    1.000
    O114     O        0.29002    0.10827    0.10869    1.000
    Ti43     Ti       0.29837    0.99883    0.13033    1.000
    Ti44     Ti       0.35027    0.08714    0.09394    1.000
    O115     O        0.36533    0.07387    0.12345    1.000
    O116     O        0.22453    0.92867    0.12371    1.000
    O117     O        0.28607    0.00656    0.10077    1.000
    O118     O        0.34253    0.95987    0.12664    1.000
    O119     O        0.30984    0.08044    0.06824    1.000
    C274     C        0.41613    0.11247    0.13561    1.000
    Ti45     Ti       0.21407    0.94448    0.09386    1.000
    C275     C        0.18763    0.87977    0.13604    1.000
    P15      P        0.26582    0.03160    0.05497    1.000
    C276     C        0.45613    0.09577    0.13697    1.000
    C277     C        0.40743    0.15767    0.14517    1.000
    O120     O        0.21915    0.98249    0.06761    1.000
    C278     C        0.19543    0.83407    0.13547    1.000
    C279     C        0.15183    0.89377    0.14937    1.000
    C280     C        0.23253    0.06247    0.04026    1.000
    C281     C        0.22303    0.05307    0.02087    1.000
    C282     C        0.22473    0.10517    0.04847    1.000
    H146     H        0.23613    0.03017    0.01417    1.000
    C283     C        0.19423    0.07527    0.00927    1.000
    C284     C        0.19483    0.12807    0.03807    1.000
    H147     H        0.24003    0.11967    0.06167    1.000
    H148     H        0.18073    0.06047    0.99587    1.000
    C285     C        0.18653    0.11237    0.01587    1.000
    H149     H        0.21743    0.16947    0.03897    1.000
    H150     H        0.17483    0.13247    0.00677    1.000
    I16      I        0.55714    0.25553    0.51992    1.000
    Cu16     Cu       0.64674    0.26821    0.49846    1.000
    N16      N        0.62370    0.19190    0.48394    1.000
    C286     C        0.56940    0.15690    0.47740    1.000
    C287     C        0.66400    0.18140    0.47749    1.000
    C288     C        0.71630    0.38440    0.57122    1.000
    H151     H        0.53940    0.16320    0.48220    1.000
    C289     C        0.55600    0.11310    0.46422    1.000
    C290     C        0.65380    0.13810    0.46406    1.000
    H152     H        0.70220    0.20500    0.48240    1.000
    H153     H        0.71460    0.41750    0.56650    1.000
    C291     C        0.59810    0.10250    0.45702    1.000
    C292     C        0.49450    0.07570    0.45689    1.000
    H154     H        0.68450    0.13240    0.45960    1.000
    H155     H        0.58940    0.07210    0.44760    1.000
    O121     O        0.45650    0.08040    0.46725    1.000
    O122     O        0.48491    0.04331    0.44202    1.000
    Ti46     Ti       0.36712    0.03496    0.46367    1.000
    Ti47     Ti       0.40353    0.98306    0.42727    1.000
    O123     O        0.37520    0.96800    0.45678    1.000
    O124     O        0.37080    0.10880    0.45704    1.000
    O125     O        0.38715    0.04726    0.43410    1.000
    O126     O        0.28400    0.99080    0.45997    1.000
    O127     O        0.43726    0.02349    0.40157    1.000
    C293     C        0.36300    0.91720    0.46894    1.000
    Ti48     Ti       0.39707    0.11926    0.42720    1.000
    C294     C        0.35880    0.14570    0.46937    1.000
    P16      P        0.43244    0.06751    0.38830    1.000
    C295     C        0.30630    0.87720    0.47030    1.000
    C296     C        0.41690    0.92590    0.47850    1.000
    O128     O        0.43000    0.11418    0.40094    1.000
    C297     C        0.30530    0.13790    0.46880    1.000
    C298     C        0.40860    0.18150    0.48270    1.000
    C299     C        0.49660    0.10080    0.37359    1.000
    C300     C        0.49670    0.11030    0.35420    1.000
    C301     C        0.54710    0.10860    0.38180    1.000
    H156     H        0.46070    0.09720    0.34750    1.000
    C302     C        0.54770    0.13910    0.34260    1.000
    C303     C        0.59990    0.13850    0.37140    1.000
    H157     H        0.54630    0.09330    0.39500    1.000
    H158     H        0.54640    0.15260    0.32920    1.000
    C304     C        0.59250    0.14680    0.34920    1.000
    H159     H        0.61870    0.11590    0.37230    1.000
    H160     H        0.62430    0.15850    0.34010    1.000
    I17      I        0.22381    0.58887    0.85326    1.000
    Cu17     Cu       0.31341    0.60154    0.83180    1.000
    N17      N        0.29037    0.52523    0.81727    1.000
    C305     C        0.23607    0.49023    0.81073    1.000
    C306     C        0.33067    0.51473    0.81082    1.000
    C307     C        0.38297    0.71773    0.90455    1.000
    H161     H        0.20607    0.49653    0.81553    1.000
    C308     C        0.22267    0.44643    0.79755    1.000
    C309     C        0.32047    0.47143    0.79739    1.000
    H162     H        0.36887    0.53833    0.81573    1.000
    H163     H        0.38127    0.75083    0.89983    1.000
    C310     C        0.26477    0.43583    0.79035    1.000
    C311     C        0.16117    0.40903    0.79022    1.000
    H164     H        0.35117    0.46573    0.79293    1.000
    H165     H        0.25607    0.40543    0.78093    1.000
    O129     O        0.12317    0.41373    0.80058    1.000
    O130     O        0.15158    0.37664    0.77535    1.000
    Ti49     Ti       0.03379    0.36829    0.79700    1.000
    Ti50     Ti       0.07020    0.31639    0.76060    1.000
    O131     O        0.04187    0.30133    0.79011    1.000
    O132     O        0.03747    0.44213    0.79037    1.000
    O133     O        0.05382    0.38059    0.76743    1.000
    O134     O        0.95067    0.32413    0.79330    1.000
    O135     O        0.10393    0.35682    0.73490    1.000
    C312     C        0.02967    0.25053    0.80227    1.000
    Ti51     Ti       0.06374    0.45259    0.76053    1.000
    C313     C        0.02547    0.47903    0.80270    1.000
    P17      P        0.09911    0.40084    0.72163    1.000
    C314     C        0.97297    0.21053    0.80363    1.000
    C315     C        0.08357    0.25923    0.81183    1.000
    O136     O        0.09667    0.44751    0.73427    1.000
    C316     C        0.97197    0.47123    0.80213    1.000
    C317     C        0.07527    0.51483    0.81603    1.000
    C318     C        0.16327    0.43413    0.70692    1.000
    C319     C        0.16337    0.44363    0.68753    1.000
    C320     C        0.21377    0.44193    0.71513    1.000
    H166     H        0.12737    0.43053    0.68083    1.000
    C321     C        0.21437    0.47243    0.67593    1.000
    C322     C        0.26657    0.47183    0.70473    1.000
    H167     H        0.21297    0.42663    0.72833    1.000
    H168     H        0.21307    0.48593    0.66253    1.000
    C323     C        0.25917    0.48013    0.68253    1.000
    H169     H        0.28537    0.44923    0.70563    1.000
    H170     H        0.29097    0.49183    0.67343    1.000
    I18      I        0.89048    0.92220    0.18659    1.000
    Cu18     Cu       0.98007    0.93488    0.16513    1.000
    N18      N        0.95703    0.85857    0.15061    1.000
    C324     C        0.90273    0.82357    0.14407    1.000
    C325     C        0.99733    0.84807    0.14416    1.000
    C326     C        0.04963    0.05107    0.23789    1.000
    H171     H        0.87273    0.82987    0.14887    1.000
    C327     C        0.88933    0.77977    0.13089    1.000
    C328     C        0.98713    0.80477    0.13073    1.000
    H172     H        0.03553    0.87167    0.14907    1.000
    H173     H        0.04793    0.08417    0.23317    1.000
    C329     C        0.93143    0.76917    0.12369    1.000
    C330     C        0.82783    0.74237    0.12356    1.000
    H174     H        0.01783    0.79907    0.12627    1.000
    H175     H        0.92273    0.73877    0.11427    1.000
    O137     O        0.78983    0.74707    0.13392    1.000
    O138     O        0.81824    0.70998    0.10869    1.000
    Ti52     Ti       0.70045    0.70163    0.13033    1.000
    Ti53     Ti       0.73686    0.64973    0.09394    1.000
    O139     O        0.70853    0.63467    0.12345    1.000
    O140     O        0.70413    0.77547    0.12371    1.000
    O141     O        0.72048    0.71393    0.10077    1.000
    O142     O        0.61733    0.65747    0.12664    1.000
    O143     O        0.77059    0.69016    0.06824    1.000
    C331     C        0.69633    0.58387    0.13561    1.000
    Ti54     Ti       0.73040    0.78593    0.09386    1.000
    C332     C        0.69213    0.81237    0.13604    1.000
    P18      P        0.76577    0.73418    0.05497    1.000
    C333     C        0.63963    0.54387    0.13697    1.000
    C334     C        0.75023    0.59257    0.14517    1.000
    O144     O        0.76333    0.78085    0.06761    1.000
    C335     C        0.63863    0.80457    0.13547    1.000
    C336     C        0.74193    0.84817    0.14937    1.000
    C337     C        0.82993    0.76747    0.04026    1.000
    C338     C        0.83003    0.77697    0.02087    1.000
    C339     C        0.88043    0.77527    0.04847    1.000
    H176     H        0.79403    0.76387    0.01417    1.000
    C340     C        0.88103    0.80577    0.00927    1.000
    C341     C        0.93323    0.80517    0.03807    1.000
    H177     H        0.87963    0.75997    0.06167    1.000
    H178     H        0.87973    0.81927    0.99587    1.000
    C342     C        0.92583    0.81347    0.01587    1.000
    H179     H        0.95203    0.78257    0.03897    1.000
    H180     H        0.95763    0.82517    0.00677    1.000
    Cu19     Cu       0.33333    0.66667    0.96856    1.000
    I19      I        0.33333    0.66667    0.03584    1.000
    N19      N        0.33333    0.66667    0.93647    1.000
    Cu20     Cu       0.00000    0.00000    0.30189    1.000
    I20      I        0.00000    0.00000    0.36917    1.000
    N20      N        0.00000    0.00000    0.26980    1.000
    Cu21     Cu       0.66667    0.33333    0.63523    1.000
    I21      I        0.66667    0.33333    0.70250    1.000
    N21      N        0.66667    0.33333    0.60314    1.000
    Cu22     Cu       0.66667    0.33333    0.53144    1.000
    I22      I        0.66667    0.33333    0.46416    1.000
    N22      N        0.66667    0.33333    0.56353    1.000
    Cu23     Cu       0.33333    0.66667    0.86477    1.000
    I23      I        0.33333    0.66667    0.79750    1.000
    N23      N        0.33333    0.66667    0.89686    1.000
    Cu24     Cu       0.00000    0.00000    0.19811    1.000
    I24      I        0.00000    0.00000    0.13083    1.000
    N24      N        0.00000    0.00000    0.23020    1.000
    O145     O        0.66667    0.60238    0.08333    1.000
    O146     O        0.66667    0.78358    0.08333    1.000
    O147     O        0.39762    0.06428    0.08333    1.000
    O148     O        0.21642    0.88308    0.08333    1.000
    O149     O        0.93572    0.33333    0.08333    1.000
    O150     O        0.11692    0.33333    0.08333    1.000
    O151     O        0.60238    0.66667    0.41667    1.000
    O152     O        0.78358    0.66667    0.41667    1.000
    O153     O        0.26905    0.00000    0.75000    1.000
    O154     O        0.45025    0.00000    0.75000    1.000
    O155     O        0.06428    0.39762    0.41667    1.000
    O156     O        0.88308    0.21642    0.41667    1.000
    O157     O        0.73095    0.73095    0.75000    1.000
    O158     O        0.54975    0.54975    0.75000    1.000
    O159     O        0.33333    0.93572    0.41667    1.000
    O160     O        0.33333    0.11692    0.41667    1.000
    O161     O        0.00000    0.26905    0.75000    1.000
    O162     O        0.00000    0.45025    0.75000    1.000
    I25      I        0.55714    0.30161    0.01992    1.000
    Cu25     Cu       0.64674    0.37853    0.99847    1.000
    N25      N        0.62370    0.43180    0.98394    1.000
    C343     C        0.56940    0.41250    0.97740    1.000
    C344     C        0.66400    0.48260    0.97749    1.000
    C345     C        0.71630    0.33190    0.07122    1.000
    H181     H        0.53940    0.37620    0.98220    1.000
    C346     C        0.55600    0.44290    0.96422    1.000
    C347     C        0.65380    0.51570    0.96406    1.000
    H182     H        0.70220    0.49720    0.98240    1.000
    H183     H        0.71460    0.29710    0.06650    1.000
    C348     C        0.59810    0.49560    0.95702    1.000
    C349     C        0.49450    0.41880    0.95689    1.000
    H184     H        0.68450    0.55210    0.95960    1.000
    H185     H        0.58940    0.51730    0.94760    1.000
    O163     O        0.45650    0.37610    0.96725    1.000
    O164     O        0.48491    0.44160    0.94202    1.000
    Ti55     Ti       0.36712    0.33216    0.96367    1.000
    Ti56     Ti       0.40353    0.42047    0.92727    1.000
    O165     O        0.37520    0.40720    0.95678    1.000
    O166     O        0.37080    0.26200    0.95704    1.000
    O167     O        0.38715    0.33989    0.93410    1.000
    O168     O        0.28400    0.29320    0.95997    1.000
    O169     O        0.43726    0.41377    0.90157    1.000
    C350     C        0.36300    0.44580    0.96894    1.000
    Ti57     Ti       0.39707    0.27781    0.92720    1.000
    C351     C        0.35880    0.21310    0.96937    1.000
    P19      P        0.43244    0.36493    0.88830    1.000
    C352     C        0.30630    0.42910    0.97030    1.000
    C353     C        0.41690    0.49100    0.97850    1.000
    O170     O        0.43000    0.31582    0.90094    1.000
    C354     C        0.30530    0.16740    0.96880    1.000
    C355     C        0.40860    0.22710    0.98270    1.000
    C356     C        0.49660    0.39580    0.87359    1.000
    C357     C        0.49670    0.38640    0.85420    1.000
    C358     C        0.54710    0.43850    0.88180    1.000
    H186     H        0.46070    0.36350    0.84750    1.000
    C359     C        0.54770    0.40860    0.84260    1.000
    C360     C        0.59990    0.46140    0.87140    1.000
    H187     H        0.54630    0.45300    0.89500    1.000
    H188     H        0.54640    0.39380    0.82920    1.000
    C361     C        0.59250    0.44570    0.84920    1.000
    H189     H        0.61870    0.50280    0.87230    1.000
    H190     H        0.62430    0.46580    0.84010    1.000
    I26      I        0.22381    0.63494    0.35326    1.000
    Cu26     Cu       0.31341    0.71186    0.33180    1.000
    N26      N        0.29037    0.76513    0.31727    1.000
    C362     C        0.23607    0.74583    0.31073    1.000
    C363     C        0.33067    0.81593    0.31082    1.000
    C364     C        0.38297    0.66523    0.40455    1.000
    H191     H        0.20607    0.70953    0.31553    1.000
    C365     C        0.22267    0.77623    0.29755    1.000
    C366     C        0.32047    0.84903    0.29739    1.000
    H192     H        0.36887    0.83053    0.31573    1.000
    H193     H        0.38127    0.63043    0.39983    1.000
    C367     C        0.26477    0.82893    0.29035    1.000
    C368     C        0.16117    0.75213    0.29022    1.000
    H194     H        0.35117    0.88543    0.29293    1.000
    H195     H        0.25607    0.85063    0.28093    1.000
    O171     O        0.12317    0.70943    0.30058    1.000
    O172     O        0.15158    0.77493    0.27535    1.000
    Ti58     Ti       0.03379    0.66549    0.29700    1.000
    Ti59     Ti       0.07020    0.75380    0.26060    1.000
    O173     O        0.04187    0.74053    0.29011    1.000
    O174     O        0.03747    0.59533    0.29037    1.000
    O175     O        0.05382    0.67322    0.26743    1.000
    O176     O        0.95067    0.62653    0.29330    1.000
    O177     O        0.10393    0.74710    0.23490    1.000
    C369     C        0.02967    0.77913    0.30227    1.000
    Ti60     Ti       0.06374    0.61114    0.26053    1.000
    C370     C        0.02547    0.54643    0.30270    1.000
    P20      P        0.09911    0.69826    0.22163    1.000
    C371     C        0.97297    0.76243    0.30363    1.000
    C372     C        0.08357    0.82433    0.31183    1.000
    O178     O        0.09667    0.64915    0.23427    1.000
    C373     C        0.97197    0.50073    0.30213    1.000
    C374     C        0.07527    0.56043    0.31603    1.000
    C375     C        0.16327    0.72913    0.20692    1.000
    C376     C        0.16337    0.71973    0.18753    1.000
    C377     C        0.21377    0.77183    0.21513    1.000
    H196     H        0.12737    0.69683    0.18083    1.000
    C378     C        0.21437    0.74193    0.17593    1.000
    C379     C        0.26657    0.79473    0.20473    1.000
    H197     H        0.21297    0.78633    0.22833    1.000
    H198     H        0.21307    0.72713    0.16253    1.000
    C380     C        0.25917    0.77903    0.18253    1.000
    H199     H        0.28537    0.83613    0.20563    1.000
    H200     H        0.29097    0.79913    0.17343    1.000
    I27      I        0.89048    0.96828    0.68659    1.000
    Cu27     Cu       0.98007    0.04520    0.66513    1.000
    N27      N        0.95703    0.09847    0.65061    1.000
    C381     C        0.90273    0.07917    0.64407    1.000
    C382     C        0.99733    0.14927    0.64416    1.000
    C383     C        0.04963    0.99857    0.73789    1.000
    H201     H        0.87273    0.04287    0.64887    1.000
    C384     C        0.88933    0.10957    0.63089    1.000
    C385     C        0.98713    0.18237    0.63073    1.000
    H202     H        0.03553    0.16387    0.64907    1.000
    H203     H        0.04793    0.96377    0.73317    1.000
    C386     C        0.93143    0.16227    0.62369    1.000
    C387     C        0.82783    0.08547    0.62356    1.000
    H204     H        0.01783    0.21877    0.62627    1.000
    H205     H        0.92273    0.18397    0.61427    1.000
    O179     O        0.78983    0.04277    0.63392    1.000
    O180     O        0.81824    0.10827    0.60869    1.000
    Ti61     Ti       0.70045    0.99883    0.63033    1.000
    Ti62     Ti       0.73686    0.08714    0.59394    1.000
    O181     O        0.70853    0.07387    0.62345    1.000
    O182     O        0.70413    0.92867    0.62371    1.000
    O183     O        0.72048    0.00656    0.60077    1.000
    O184     O        0.61733    0.95987    0.62664    1.000
    O185     O        0.77059    0.08044    0.56824    1.000
    C388     C        0.69633    0.11247    0.63561    1.000
    Ti63     Ti       0.73040    0.94448    0.59386    1.000
    C389     C        0.69213    0.87977    0.63604    1.000
    P21      P        0.76577    0.03160    0.55497    1.000
    C390     C        0.63963    0.09577    0.63697    1.000
    C391     C        0.75023    0.15767    0.64517    1.000
    O186     O        0.76333    0.98249    0.56761    1.000
    C392     C        0.63863    0.83407    0.63547    1.000
    C393     C        0.74193    0.89377    0.64937    1.000
    C394     C        0.82993    0.06247    0.54026    1.000
    C395     C        0.83003    0.05307    0.52087    1.000
    C396     C        0.88043    0.10517    0.54847    1.000
    H206     H        0.79403    0.03017    0.51417    1.000
    C397     C        0.88103    0.07527    0.50927    1.000
    C398     C        0.93323    0.12807    0.53807    1.000
    H207     H        0.87963    0.11967    0.56167    1.000
    H208     H        0.87973    0.06047    0.49587    1.000
    C399     C        0.92583    0.11237    0.51587    1.000
    H209     H        0.95203    0.16947    0.53897    1.000
    H210     H        0.95763    0.13247    0.50677    1.000
    I28      I        0.69839    0.25553    0.01992    1.000
    Cu28     Cu       0.62147    0.26821    0.99847    1.000
    N28      N        0.56820    0.19190    0.98394    1.000
    C400     C        0.58750    0.15690    0.97740    1.000
    C401     C        0.51740    0.18140    0.97749    1.000
    C402     C        0.66810    0.38440    0.07122    1.000
    H211     H        0.62380    0.16320    0.98220    1.000
    C403     C        0.55710    0.11310    0.96422    1.000
    C404     C        0.48430    0.13810    0.96406    1.000
    H212     H        0.50280    0.20500    0.98240    1.000
    H213     H        0.70290    0.41750    0.06650    1.000
    C405     C        0.50440    0.10250    0.95702    1.000
    C406     C        0.58120    0.07570    0.95689    1.000
    H214     H        0.44790    0.13240    0.95960    1.000
    H215     H        0.48270    0.07210    0.94760    1.000
    O187     O        0.62390    0.08040    0.96725    1.000
    O188     O        0.55840    0.04331    0.94202    1.000
    Ti64     Ti       0.66784    0.03496    0.96367    1.000
    Ti65     Ti       0.57953    0.98306    0.92727    1.000
    O189     O        0.59280    0.96800    0.95678    1.000
    O190     O        0.73800    0.10880    0.95704    1.000
    O191     O        0.66011    0.04726    0.93410    1.000
    O192     O        0.70680    0.99080    0.95997    1.000
    O193     O        0.58623    0.02349    0.90157    1.000
    C407     C        0.55420    0.91720    0.96894    1.000
    Ti66     Ti       0.72219    0.11926    0.92720    1.000
    C408     C        0.78690    0.14570    0.96937    1.000
    P22      P        0.63507    0.06751    0.88830    1.000
    C409     C        0.57090    0.87720    0.97030    1.000
    C410     C        0.50900    0.92590    0.97850    1.000
    O194     O        0.68418    0.11418    0.90094    1.000
    C411     C        0.83260    0.13790    0.96880    1.000
    C412     C        0.77290    0.18150    0.98270    1.000
    C413     C        0.60420    0.10080    0.87359    1.000
    C414     C        0.61360    0.11030    0.85420    1.000
    C415     C        0.56150    0.10860    0.88180    1.000
    H216     H        0.63650    0.09720    0.84750    1.000
    C416     C        0.59140    0.13910    0.84260    1.000
    C417     C        0.53860    0.13850    0.87140    1.000
    H217     H        0.54700    0.09330    0.89500    1.000
    H218     H        0.60620    0.15260    0.82920    1.000
    C418     C        0.55430    0.14680    0.84920    1.000
    H219     H        0.49720    0.11590    0.87230    1.000
    H220     H        0.53420    0.15850    0.84010    1.000
    I29      I        0.36506    0.58887    0.35326    1.000
    Cu29     Cu       0.28814    0.60154    0.33180    1.000
    N29      N        0.23487    0.52523    0.31727    1.000
    C419     C        0.25417    0.49023    0.31073    1.000
    C420     C        0.18407    0.51473    0.31082    1.000
    C421     C        0.33477    0.71773    0.40455    1.000
    H221     H        0.29047    0.49653    0.31553    1.000
    C422     C        0.22377    0.44643    0.29755    1.000
    C423     C        0.15097    0.47143    0.29739    1.000
    H222     H        0.16947    0.53833    0.31573    1.000
    H223     H        0.36957    0.75083    0.39983    1.000
    C424     C        0.17107    0.43583    0.29035    1.000
    C425     C        0.24787    0.40903    0.29022    1.000
    H224     H        0.11457    0.46573    0.29293    1.000
    H225     H        0.14937    0.40543    0.28093    1.000
    O195     O        0.29057    0.41373    0.30058    1.000
    O196     O        0.22507    0.37664    0.27535    1.000
    Ti67     Ti       0.33451    0.36829    0.29700    1.000
    Ti68     Ti       0.24620    0.31639    0.26060    1.000
    O197     O        0.25947    0.30133    0.29011    1.000
    O198     O        0.40467    0.44213    0.29037    1.000
    O199     O        0.32678    0.38059    0.26743    1.000
    O200     O        0.37347    0.32413    0.29330    1.000
    O201     O        0.25290    0.35682    0.23490    1.000
    C426     C        0.22087    0.25053    0.30227    1.000
    Ti69     Ti       0.38886    0.45259    0.26053    1.000
    C427     C        0.45357    0.47903    0.30270    1.000
    P23      P        0.30174    0.40084    0.22163    1.000
    C428     C        0.23757    0.21053    0.30363    1.000
    C429     C        0.17567    0.25923    0.31183    1.000
    O202     O        0.35085    0.44751    0.23427    1.000
    C430     C        0.49927    0.47123    0.30213    1.000
    C431     C        0.43957    0.51483    0.31603    1.000
    C432     C        0.27087    0.43413    0.20692    1.000
    C433     C        0.28027    0.44363    0.18753    1.000
    C434     C        0.22817    0.44193    0.21513    1.000
    H226     H        0.30317    0.43053    0.18083    1.000
    C435     C        0.25807    0.47243    0.17593    1.000
    C436     C        0.20527    0.47183    0.20473    1.000
    H227     H        0.21367    0.42663    0.22833    1.000
    H228     H        0.27287    0.48593    0.16253    1.000
    C437     C        0.22097    0.48013    0.18253    1.000
    H229     H        0.16387    0.44923    0.20563    1.000
    H230     H        0.20087    0.49183    0.17343    1.000
    I30      I        0.03172    0.92220    0.68659    1.000
    Cu30     Cu       0.95480    0.93488    0.66513    1.000
    N30      N        0.90153    0.85857    0.65061    1.000
    C438     C        0.92083    0.82357    0.64407    1.000
    C439     C        0.85073    0.84807    0.64416    1.000
    C440     C        0.00143    0.05107    0.73789    1.000
    H231     H        0.95713    0.82987    0.64887    1.000
    C441     C        0.89043    0.77977    0.63089    1.000
    C442     C        0.81763    0.80477    0.63073    1.000
    H232     H        0.83613    0.87167    0.64907    1.000
    H233     H        0.03623    0.08417    0.73317    1.000
    C443     C        0.83773    0.76917    0.62369    1.000
    C444     C        0.91453    0.74237    0.62356    1.000
    H234     H        0.78123    0.79907    0.62627    1.000
    H235     H        0.81603    0.73877    0.61427    1.000
    O203     O        0.95723    0.74707    0.63392    1.000
    O204     O        0.89173    0.70998    0.60869    1.000
    Ti70     Ti       0.00117    0.70163    0.63033    1.000
    Ti71     Ti       0.91286    0.64973    0.59394    1.000
    O205     O        0.92613    0.63467    0.62345    1.000
    O206     O        0.07133    0.77547    0.62371    1.000
    O207     O        0.99344    0.71393    0.60077    1.000
    O208     O        0.04013    0.65747    0.62664    1.000
    O209     O        0.91956    0.69016    0.56824    1.000
    C445     C        0.88753    0.58387    0.63561    1.000
    Ti72     Ti       0.05552    0.78593    0.59386    1.000
    C446     C        0.12023    0.81237    0.63604    1.000
    P24      P        0.96840    0.73418    0.55497    1.000
    C447     C        0.90423    0.54387    0.63697    1.000
    C448     C        0.84233    0.59257    0.64517    1.000
    O210     O        0.01751    0.78085    0.56761    1.000
    C449     C        0.16593    0.80457    0.63547    1.000
    C450     C        0.10623    0.84817    0.64937    1.000
    C451     C        0.93753    0.76747    0.54026    1.000
    C452     C        0.94693    0.77697    0.52087    1.000
    C453     C        0.89483    0.77527    0.54847    1.000
    H236     H        0.96983    0.76387    0.51417    1.000
    C454     C        0.92473    0.80577    0.50927    1.000
    C455     C        0.87193    0.80517    0.53807    1.000
    H237     H        0.88033    0.75997    0.56167    1.000
    H238     H        0.93953    0.81927    0.49587    1.000
    C456     C        0.88763    0.81347    0.51587    1.000
    H239     H        0.83053    0.78257    0.53897    1.000
    H240     H        0.86753    0.82517    0.50677    1.000
    I31      I        0.74447    0.44286    0.01992    1.000
    Cu31     Cu       0.73179    0.35326    0.99847    1.000
    N31      N        0.80810    0.37630    0.98394    1.000
    C457     C        0.84310    0.43060    0.97740    1.000
    C458     C        0.81860    0.33600    0.97749    1.000
    C459     C        0.61560    0.28370    0.07122    1.000
    H241     H        0.83680    0.46060    0.98220    1.000
    C460     C        0.88690    0.44400    0.96422    1.000
    C461     C        0.86190    0.34620    0.96406    1.000
    H242     H        0.79500    0.29780    0.98240    1.000
    H243     H        0.58250    0.28540    0.06650    1.000
    C462     C        0.89750    0.40190    0.95702    1.000
    C463     C        0.92430    0.50550    0.95689    1.000
    H244     H        0.86760    0.31550    0.95960    1.000
    H245     H        0.92790    0.41060    0.94760    1.000
    O211     O        0.91960    0.54350    0.96725    1.000
    O212     O        0.95669    0.51509    0.94202    1.000
    Ti73     Ti       0.96504    0.63288    0.96367    1.000
    Ti74     Ti       0.01694    0.59647    0.92727    1.000
    O213     O        0.03200    0.62480    0.95678    1.000
    O214     O        0.89120    0.62920    0.95704    1.000
    O215     O        0.95274    0.61285    0.93410    1.000
    O216     O        0.00920    0.71600    0.95997    1.000
    O217     O        0.97651    0.56274    0.90157    1.000
    C464     C        0.08280    0.63700    0.96894    1.000
    Ti75     Ti       0.88074    0.60293    0.92720    1.000
    C465     C        0.85430    0.64120    0.96937    1.000
    P25      P        0.93249    0.56756    0.88830    1.000
    C466     C        0.12280    0.69370    0.97030    1.000
    C467     C        0.07410    0.58310    0.97850    1.000
    O218     O        0.88582    0.57000    0.90094    1.000
    C468     C        0.86210    0.69470    0.96880    1.000
    C469     C        0.81850    0.59140    0.98270    1.000
    C470     C        0.89920    0.50340    0.87359    1.000
    C471     C        0.88970    0.50330    0.85420    1.000
    C472     C        0.89140    0.45290    0.88180    1.000
    H246     H        0.90280    0.53930    0.84750    1.000
    C473     C        0.86090    0.45230    0.84260    1.000
    C474     C        0.86150    0.40010    0.87140    1.000
    H247     H        0.90670    0.45370    0.89500    1.000
    H248     H        0.84740    0.45360    0.82920    1.000
    C475     C        0.85320    0.40750    0.84920    1.000
    H249     H        0.88410    0.38130    0.87230    1.000
    H250     H        0.84150    0.37570    0.84010    1.000
    I32      I        0.41113    0.77619    0.35326    1.000
    Cu32     Cu       0.39846    0.68659    0.33180    1.000
    N32      N        0.47477    0.70963    0.31727    1.000
    C476     C        0.50977    0.76393    0.31073    1.000
    C477     C        0.48527    0.66933    0.31082    1.000
    C478     C        0.28227    0.61703    0.40455    1.000
    H251     H        0.50347    0.79393    0.31553    1.000
    C479     C        0.55357    0.77733    0.29755    1.000
    C480     C        0.52857    0.67953    0.29739    1.000
    H252     H        0.46167    0.63113    0.31573    1.000
    H253     H        0.24917    0.61873    0.39983    1.000
    C481     C        0.56417    0.73523    0.29035    1.000
    C482     C        0.59097    0.83883    0.29022    1.000
    H254     H        0.53427    0.64883    0.29293    1.000
    H255     H        0.59457    0.74393    0.28093    1.000
    O219     O        0.58627    0.87683    0.30058    1.000
    O220     O        0.62336    0.84842    0.27535    1.000
    Ti76     Ti       0.63171    0.96621    0.29700    1.000
    Ti77     Ti       0.68361    0.92980    0.26060    1.000
    O221     O        0.69867    0.95813    0.29011    1.000
    O222     O        0.55787    0.96253    0.29037    1.000
    O223     O        0.61941    0.94618    0.26743    1.000
    O224     O        0.67587    0.04933    0.29330    1.000
    O225     O        0.64318    0.89607    0.23490    1.000
    C483     C        0.74947    0.97033    0.30227    1.000
    Ti78     Ti       0.54741    0.93626    0.26053    1.000
    C484     C        0.52097    0.97453    0.30270    1.000
    P26      P        0.59916    0.90089    0.22163    1.000
    C485     C        0.78947    0.02703    0.30363    1.000
    C486     C        0.74077    0.91643    0.31183    1.000
    O226     O        0.55249    0.90333    0.23427    1.000
    C487     C        0.52877    0.02803    0.30213    1.000
    C488     C        0.48517    0.92473    0.31603    1.000
    C489     C        0.56587    0.83673    0.20692    1.000
    C490     C        0.55637    0.83663    0.18753    1.000
    C491     C        0.55807    0.78623    0.21513    1.000
    H256     H        0.56947    0.87263    0.18083    1.000
    C492     C        0.52757    0.78563    0.17593    1.000
    C493     C        0.52817    0.73343    0.20473    1.000
    H257     H        0.57337    0.78703    0.22833    1.000
    H258     H        0.51407    0.78693    0.16253    1.000
    C494     C        0.51987    0.74083    0.18253    1.000
    H259     H        0.55077    0.71463    0.20563    1.000
    H260     H        0.50817    0.70903    0.17343    1.000
    I33      I        0.07780    0.10952    0.68659    1.000
    Cu33     Cu       0.06512    0.01993    0.66513    1.000
    N33      N        0.14143    0.04297    0.65061    1.000
    C495     C        0.17643    0.09727    0.64407    1.000
    C496     C        0.15193    0.00267    0.64416    1.000
    C497     C        0.94893    0.95037    0.73789    1.000
    H261     H        0.17013    0.12727    0.64887    1.000
    C498     C        0.22023    0.11067    0.63089    1.000
    C499     C        0.19523    0.01287    0.63073    1.000
    H262     H        0.12833    0.96447    0.64907    1.000
    H263     H        0.91583    0.95207    0.73317    1.000
    C500     C        0.23083    0.06857    0.62369    1.000
    C501     C        0.25763    0.17217    0.62356    1.000
    H264     H        0.20093    0.98217    0.62627    1.000
    H265     H        0.26123    0.07727    0.61427    1.000
    O227     O        0.25293    0.21017    0.63392    1.000
    O228     O        0.29002    0.18176    0.60869    1.000
    Ti79     Ti       0.29837    0.29955    0.63033    1.000
    Ti80     Ti       0.35027    0.26314    0.59394    1.000
    O229     O        0.36533    0.29147    0.62345    1.000
    O230     O        0.22453    0.29587    0.62371    1.000
    O231     O        0.28607    0.27952    0.60077    1.000
    O232     O        0.34253    0.38267    0.62664    1.000
    O233     O        0.30984    0.22941    0.56824    1.000
    C502     C        0.41613    0.30367    0.63561    1.000
    Ti81     Ti       0.21407    0.26960    0.59386    1.000
    C503     C        0.18763    0.30787    0.63604    1.000
    P27      P        0.26582    0.23423    0.55497    1.000
    C504     C        0.45613    0.36037    0.63697    1.000
    C505     C        0.40743    0.24977    0.64517    1.000
    O234     O        0.21915    0.23667    0.56761    1.000
    C506     C        0.19543    0.36137    0.63547    1.000
    C507     C        0.15183    0.25807    0.64937    1.000
    C508     C        0.23253    0.17007    0.54026    1.000
    C509     C        0.22303    0.16997    0.52087    1.000
    C510     C        0.22473    0.11957    0.54847    1.000
    H266     H        0.23613    0.20597    0.51417    1.000
    C511     C        0.19423    0.11897    0.50927    1.000
    C512     C        0.19483    0.06677    0.53807    1.000
    H267     H        0.24003    0.12037    0.56167    1.000
    H268     H        0.18073    0.12027    0.49587    1.000
    C513     C        0.18653    0.07417    0.51587    1.000
    H269     H        0.21743    0.04797    0.53897    1.000
    H270     H        0.17483    0.04237    0.50677    1.000
    I34      I        0.30161    0.55714    0.48008    1.000
    Cu34     Cu       0.37853    0.64674    0.50154    1.000
    N34      N        0.43180    0.62370    0.51606    1.000
    C514     C        0.41250    0.56940    0.52260    1.000
    C515     C        0.48260    0.66400    0.52251    1.000
    C516     C        0.33190    0.71630    0.42878    1.000
    H271     H        0.37620    0.53940    0.51780    1.000
    C517     C        0.44290    0.55600    0.53578    1.000
    C518     C        0.51570    0.65380    0.53594    1.000
    H272     H        0.49720    0.70220    0.51760    1.000
    H273     H        0.29710    0.71460    0.43350    1.000
    C519     C        0.49560    0.59810    0.54298    1.000
    C520     C        0.41880    0.49450    0.54311    1.000
    H274     H        0.55210    0.68450    0.54040    1.000
    H275     H        0.51730    0.58940    0.55240    1.000
    O235     O        0.37610    0.45650    0.53275    1.000
    O236     O        0.44160    0.48491    0.55798    1.000
    Ti82     Ti       0.33216    0.36712    0.53633    1.000
    Ti83     Ti       0.42047    0.40353    0.57273    1.000
    O237     O        0.40720    0.37520    0.54322    1.000
    O238     O        0.26200    0.37080    0.54296    1.000
    O239     O        0.33989    0.38715    0.56590    1.000
    O240     O        0.29320    0.28400    0.54003    1.000
    O241     O        0.41377    0.43726    0.59843    1.000
    C521     C        0.44580    0.36300    0.53106    1.000
    Ti84     Ti       0.27781    0.39707    0.57280    1.000
    C522     C        0.21310    0.35880    0.53063    1.000
    P28      P        0.36493    0.43244    0.61170    1.000
    C523     C        0.42910    0.30630    0.52970    1.000
    C524     C        0.49100    0.41690    0.52150    1.000
    O242     O        0.31582    0.43000    0.59906    1.000
    C525     C        0.16740    0.30530    0.53120    1.000
    C526     C        0.22710    0.40860    0.51730    1.000
    C527     C        0.39580    0.49660    0.62641    1.000
    C528     C        0.38640    0.49670    0.64580    1.000
    C529     C        0.43850    0.54710    0.61820    1.000
    H276     H        0.36350    0.46070    0.65250    1.000
    C530     C        0.40860    0.54770    0.65740    1.000
    C531     C        0.46140    0.59990    0.62860    1.000
    H277     H        0.45300    0.54630    0.60500    1.000
    H278     H        0.39380    0.54640    0.67080    1.000
    C532     C        0.44570    0.59250    0.65080    1.000
    H279     H        0.50280    0.61870    0.62770    1.000
    H280     H        0.46580    0.62430    0.65990    1.000
    I35      I        0.96828    0.89048    0.81341    1.000
    Cu35     Cu       0.04520    0.98007    0.83487    1.000
    N35      N        0.09847    0.95703    0.84939    1.000
    C533     C        0.07917    0.90273    0.85593    1.000
    C534     C        0.14927    0.99733    0.85584    1.000
    C535     C        0.99857    0.04963    0.76211    1.000
    H281     H        0.04287    0.87273    0.85113    1.000
    C536     C        0.10957    0.88933    0.86911    1.000
    C537     C        0.18237    0.98713    0.86927    1.000
    H282     H        0.16387    0.03553    0.85093    1.000
    H283     H        0.96377    0.04793    0.76683    1.000
    C538     C        0.16227    0.93143    0.87631    1.000
    C539     C        0.08547    0.82783    0.87644    1.000
    H284     H        0.21877    0.01783    0.87373    1.000
    H285     H        0.18397    0.92273    0.88573    1.000
    O243     O        0.04277    0.78983    0.86608    1.000
    O244     O        0.10827    0.81824    0.89131    1.000
    Ti85     Ti       0.99883    0.70045    0.86967    1.000
    Ti86     Ti       0.08714    0.73686    0.90606    1.000
    O245     O        0.07387    0.70853    0.87655    1.000
    O246     O        0.92867    0.70413    0.87629    1.000
    O247     O        0.00656    0.72048    0.89923    1.000
    O248     O        0.95987    0.61733    0.87336    1.000
    O249     O        0.08044    0.77059    0.93176    1.000
    C540     C        0.11247    0.69633    0.86439    1.000
    Ti87     Ti       0.94448    0.73040    0.90614    1.000
    C541     C        0.87977    0.69213    0.86396    1.000
    P29      P        0.03160    0.76577    0.94503    1.000
    C542     C        0.09577    0.63963    0.86303    1.000
    C543     C        0.15767    0.75023    0.85483    1.000
    O250     O        0.98249    0.76333    0.93239    1.000
    C544     C        0.83407    0.63863    0.86453    1.000
    C545     C        0.89377    0.74193    0.85063    1.000
    C546     C        0.06247    0.82993    0.95974    1.000
    C547     C        0.05307    0.83003    0.97913    1.000
    C548     C        0.10517    0.88043    0.95153    1.000
    H286     H        0.03017    0.79403    0.98583    1.000
    C549     C        0.07527    0.88103    0.99073    1.000
    C550     C        0.12807    0.93323    0.96193    1.000
    H287     H        0.11967    0.87963    0.93833    1.000
    H288     H        0.06047    0.87973    0.00413    1.000
    C551     C        0.11237    0.92583    0.98413    1.000
    H289     H        0.16947    0.95203    0.96103    1.000
    H290     H        0.13247    0.95763    0.99323    1.000
    I36      I        0.63494    0.22381    0.14674    1.000
    Cu36     Cu       0.71186    0.31341    0.16820    1.000
    N36      N        0.76513    0.29037    0.18273    1.000
    C552     C        0.74583    0.23607    0.18927    1.000
    C553     C        0.81593    0.33067    0.18918    1.000
    C554     C        0.66523    0.38297    0.09545    1.000
    H291     H        0.70953    0.20607    0.18447    1.000
    C555     C        0.77623    0.22267    0.20245    1.000
    C556     C        0.84903    0.32047    0.20261    1.000
    H292     H        0.83053    0.36887    0.18427    1.000
    H293     H        0.63043    0.38127    0.10017    1.000
    C557     C        0.82893    0.26477    0.20965    1.000
    C558     C        0.75213    0.16117    0.20978    1.000
    H294     H        0.88543    0.35117    0.20707    1.000
    H295     H        0.85063    0.25607    0.21907    1.000
    O251     O        0.70943    0.12317    0.19942    1.000
    O252     O        0.77493    0.15158    0.22465    1.000
    Ti88     Ti       0.66549    0.03379    0.20300    1.000
    Ti89     Ti       0.75380    0.07020    0.23940    1.000
    O253     O        0.74053    0.04187    0.20989    1.000
    O254     O        0.59533    0.03747    0.20963    1.000
    O255     O        0.67322    0.05382    0.23257    1.000
    O256     O        0.62653    0.95067    0.20670    1.000
    O257     O        0.74710    0.10393    0.26510    1.000
    C559     C        0.77913    0.02967    0.19773    1.000
    Ti90     Ti       0.61114    0.06374    0.23947    1.000
    C560     C        0.54643    0.02547    0.19730    1.000
    P30      P        0.69826    0.09911    0.27837    1.000
    C561     C        0.76243    0.97297    0.19637    1.000
    C562     C        0.82433    0.08357    0.18817    1.000
    O258     O        0.64915    0.09667    0.26573    1.000
    C563     C        0.50073    0.97197    0.19787    1.000
    C564     C        0.56043    0.07527    0.18397    1.000
    C565     C        0.72913    0.16327    0.29308    1.000
    C566     C        0.71973    0.16337    0.31247    1.000
    C567     C        0.77183    0.21377    0.28487    1.000
    H296     H        0.69683    0.12737    0.31917    1.000
    C568     C        0.74193    0.21437    0.32407    1.000
    C569     C        0.79473    0.26657    0.29527    1.000
    H297     H        0.78633    0.21297    0.27167    1.000
    H298     H        0.72713    0.21307    0.33747    1.000
    C570     C        0.77903    0.25917    0.31747    1.000
    H299     H        0.83613    0.28537    0.29437    1.000
    H300     H        0.79913    0.29097    0.32657    1.000
    I37      I        0.25553    0.69839    0.48008    1.000
    Cu37     Cu       0.26821    0.62147    0.50154    1.000
    N37      N        0.19190    0.56820    0.51606    1.000
    C571     C        0.15690    0.58750    0.52260    1.000
    C572     C        0.18140    0.51740    0.52251    1.000
    C573     C        0.38440    0.66810    0.42878    1.000
    H301     H        0.16320    0.62380    0.51780    1.000
    C574     C        0.11310    0.55710    0.53578    1.000
    C575     C        0.13810    0.48430    0.53594    1.000
    H302     H        0.20500    0.50280    0.51760    1.000
    H303     H        0.41750    0.70290    0.43350    1.000
    C576     C        0.10250    0.50440    0.54298    1.000
    C577     C        0.07570    0.58120    0.54311    1.000
    H304     H        0.13240    0.44790    0.54040    1.000
    H305     H        0.07210    0.48270    0.55240    1.000
    O259     O        0.08040    0.62390    0.53275    1.000
    O260     O        0.04331    0.55840    0.55798    1.000
    Ti91     Ti       0.03496    0.66784    0.53633    1.000
    Ti92     Ti       0.98306    0.57953    0.57273    1.000
    O261     O        0.96800    0.59280    0.54322    1.000
    O262     O        0.10880    0.73800    0.54296    1.000
    O263     O        0.04726    0.66011    0.56590    1.000
    O264     O        0.99080    0.70680    0.54003    1.000
    O265     O        0.02349    0.58623    0.59843    1.000
    C578     C        0.91720    0.55420    0.53106    1.000
    Ti93     Ti       0.11926    0.72219    0.57280    1.000
    C579     C        0.14570    0.78690    0.53063    1.000
    P31      P        0.06751    0.63507    0.61170    1.000
    C580     C        0.87720    0.57090    0.52970    1.000
    C581     C        0.92590    0.50900    0.52150    1.000
    O266     O        0.11418    0.68418    0.59906    1.000
    C582     C        0.13790    0.83260    0.53120    1.000
    C583     C        0.18150    0.77290    0.51730    1.000
    C584     C        0.10080    0.60420    0.62641    1.000
    C585     C        0.11030    0.61360    0.64580    1.000
    C586     C        0.10860    0.56150    0.61820    1.000
    H306     H        0.09720    0.63650    0.65250    1.000
    C587     C        0.13910    0.59140    0.65740    1.000
    C588     C        0.13850    0.53860    0.62860    1.000
    H307     H        0.09330    0.54700    0.60500    1.000
    H308     H        0.15260    0.60620    0.67080    1.000
    C589     C        0.14680    0.55430    0.65080    1.000
    H309     H        0.11590    0.49720    0.62770    1.000
    H310     H        0.15850    0.53420    0.65990    1.000
    I38      I        0.92220    0.03172    0.81341    1.000
    Cu38     Cu       0.93488    0.95480    0.83487    1.000
    N38      N        0.85857    0.90153    0.84939    1.000
    C590     C        0.82357    0.92083    0.85593    1.000
    C591     C        0.84807    0.85073    0.85584    1.000
    C592     C        0.05107    0.00143    0.76211    1.000
    H311     H        0.82987    0.95713    0.85113    1.000
    C593     C        0.77977    0.89043    0.86911    1.000
    C594     C        0.80477    0.81763    0.86927    1.000
    H312     H        0.87167    0.83613    0.85093    1.000
    H313     H        0.08417    0.03623    0.76683    1.000
    C595     C        0.76917    0.83773    0.87631    1.000
    C596     C        0.74237    0.91453    0.87644    1.000
    H314     H        0.79907    0.78123    0.87373    1.000
    H315     H        0.73877    0.81603    0.88573    1.000
    O267     O        0.74707    0.95723    0.86608    1.000
    O268     O        0.70998    0.89173    0.89131    1.000
    Ti94     Ti       0.70163    0.00117    0.86967    1.000
    Ti95     Ti       0.64973    0.91286    0.90606    1.000
    O269     O        0.63467    0.92613    0.87655    1.000
    O270     O        0.77547    0.07133    0.87629    1.000
    O271     O        0.71393    0.99344    0.89923    1.000
    O272     O        0.65747    0.04013    0.87336    1.000
    O273     O        0.69016    0.91956    0.93176    1.000
    C597     C        0.58387    0.88753    0.86439    1.000
    Ti96     Ti       0.78593    0.05552    0.90614    1.000
    C598     C        0.81237    0.12023    0.86396    1.000
    P32      P        0.73418    0.96840    0.94503    1.000
    C599     C        0.54387    0.90423    0.86303    1.000
    C600     C        0.59257    0.84233    0.85483    1.000
    O274     O        0.78085    0.01751    0.93239    1.000
    C601     C        0.80457    0.16593    0.86453    1.000
    C602     C        0.84817    0.10623    0.85063    1.000
    C603     C        0.76747    0.93753    0.95974    1.000
    C604     C        0.77697    0.94693    0.97913    1.000
    C605     C        0.77527    0.89483    0.95153    1.000
    H316     H        0.76387    0.96983    0.98583    1.000
    C606     C        0.80577    0.92473    0.99073    1.000
    C607     C        0.80517    0.87193    0.96193    1.000
    H317     H        0.75997    0.88033    0.93833    1.000
    H318     H        0.81927    0.93953    0.00413    1.000
    C608     C        0.81347    0.88763    0.98413    1.000
    H319     H        0.78257    0.83053    0.96103    1.000
    H320     H        0.82517    0.86753    0.99323    1.000
    I39      I        0.58887    0.36506    0.14674    1.000
    Cu39     Cu       0.60154    0.28814    0.16820    1.000
    N39      N        0.52523    0.23487    0.18273    1.000
    C609     C        0.49023    0.25417    0.18927    1.000
    C610     C        0.51473    0.18407    0.18918    1.000
    C611     C        0.71773    0.33477    0.09545    1.000
    H321     H        0.49653    0.29047    0.18447    1.000
    C612     C        0.44643    0.22377    0.20245    1.000
    C613     C        0.47143    0.15097    0.20261    1.000
    H322     H        0.53833    0.16947    0.18427    1.000
    H323     H        0.75083    0.36957    0.10017    1.000
    C614     C        0.43583    0.17107    0.20965    1.000
    C615     C        0.40903    0.24787    0.20978    1.000
    H324     H        0.46573    0.11457    0.20707    1.000
    H325     H        0.40543    0.14937    0.21907    1.000
    O275     O        0.41373    0.29057    0.19942    1.000
    O276     O        0.37664    0.22507    0.22465    1.000
    Ti97     Ti       0.36829    0.33451    0.20300    1.000
    Ti98     Ti       0.31639    0.24620    0.23940    1.000
    O277     O        0.30133    0.25947    0.20989    1.000
    O278     O        0.44213    0.40467    0.20963    1.000
    O279     O        0.38059    0.32678    0.23257    1.000
    O280     O        0.32413    0.37347    0.20670    1.000
    O281     O        0.35682    0.25290    0.26510    1.000
    C616     C        0.25053    0.22087    0.19773    1.000
    Ti99     Ti       0.45259    0.38886    0.23947    1.000
    C617     C        0.47903    0.45357    0.19730    1.000
    P33      P        0.40084    0.30174    0.27837    1.000
    C618     C        0.21053    0.23757    0.19637    1.000
    C619     C        0.25923    0.17567    0.18817    1.000
    O282     O        0.44751    0.35085    0.26573    1.000
    C620     C        0.47123    0.49927    0.19787    1.000
    C621     C        0.51483    0.43957    0.18397    1.000
    C622     C        0.43413    0.27087    0.29308    1.000
    C623     C        0.44363    0.28027    0.31247    1.000
    C624     C        0.44193    0.22817    0.28487    1.000
    H326     H        0.43053    0.30317    0.31917    1.000
    C625     C        0.47243    0.25807    0.32407    1.000
    C626     C        0.47183    0.20527    0.29527    1.000
    H327     H        0.42663    0.21367    0.27167    1.000
    H328     H        0.48593    0.27287    0.33747    1.000
    C627     C        0.48013    0.22097    0.31747    1.000
    H329     H        0.44923    0.16387    0.29437    1.000
    H330     H        0.49183    0.20087    0.32657    1.000
    I40      I        0.44286    0.74447    0.48008    1.000
    Cu40     Cu       0.35326    0.73179    0.50154    1.000
    N40      N        0.37630    0.80810    0.51606    1.000
    C628     C        0.43060    0.84310    0.52260    1.000
    C629     C        0.33600    0.81860    0.52251    1.000
    C630     C        0.28370    0.61560    0.42878    1.000
    H331     H        0.46060    0.83680    0.51780    1.000
    C631     C        0.44400    0.88690    0.53578    1.000
    C632     C        0.34620    0.86190    0.53594    1.000
    H332     H        0.29780    0.79500    0.51760    1.000
    H333     H        0.28540    0.58250    0.43350    1.000
    C633     C        0.40190    0.89750    0.54298    1.000
    C634     C        0.50550    0.92430    0.54311    1.000
    H334     H        0.31550    0.86760    0.54040    1.000
    H335     H        0.41060    0.92790    0.55240    1.000
    O283     O        0.54350    0.91960    0.53275    1.000
    O284     O        0.51509    0.95669    0.55798    1.000
    Ti100    Ti       0.63288    0.96504    0.53633    1.000
    Ti101    Ti       0.59647    0.01694    0.57273    1.000
    O285     O        0.62480    0.03200    0.54322    1.000
    O286     O        0.62920    0.89120    0.54296    1.000
    O287     O        0.61285    0.95274    0.56590    1.000
    O288     O        0.71600    0.00920    0.54003    1.000
    O289     O        0.56274    0.97651    0.59843    1.000
    C635     C        0.63700    0.08280    0.53106    1.000
    Ti102    Ti       0.60293    0.88074    0.57280    1.000
    C636     C        0.64120    0.85430    0.53063    1.000
    P34      P        0.56756    0.93249    0.61170    1.000
    C637     C        0.69370    0.12280    0.52970    1.000
    C638     C        0.58310    0.07410    0.52150    1.000
    O290     O        0.57000    0.88582    0.59906    1.000
    C639     C        0.69470    0.86210    0.53120    1.000
    C640     C        0.59140    0.81850    0.51730    1.000
    C641     C        0.50340    0.89920    0.62641    1.000
    C642     C        0.50330    0.88970    0.64580    1.000
    C643     C        0.45290    0.89140    0.61820    1.000
    H336     H        0.53930    0.90280    0.65250    1.000
    C644     C        0.45230    0.86090    0.65740    1.000
    C645     C        0.40010    0.86150    0.62860    1.000
    H337     H        0.45370    0.90670    0.60500    1.000
    H338     H        0.45360    0.84740    0.67080    1.000
    C646     C        0.40750    0.85320    0.65080    1.000
    H339     H        0.38130    0.88410    0.62770    1.000
    H340     H        0.37570    0.84150    0.65990    1.000
    I41      I        0.10952    0.07780    0.81341    1.000
    Cu41     Cu       0.01993    0.06512    0.83487    1.000
    N41      N        0.04297    0.14143    0.84939    1.000
    C647     C        0.09727    0.17643    0.85593    1.000
    C648     C        0.00267    0.15193    0.85584    1.000
    C649     C        0.95037    0.94893    0.76211    1.000
    H341     H        0.12727    0.17013    0.85113    1.000
    C650     C        0.11067    0.22023    0.86911    1.000
    C651     C        0.01287    0.19523    0.86927    1.000
    H342     H        0.96447    0.12833    0.85093    1.000
    H343     H        0.95207    0.91583    0.76683    1.000
    C652     C        0.06857    0.23083    0.87631    1.000
    C653     C        0.17217    0.25763    0.87644    1.000
    H344     H        0.98217    0.20093    0.87373    1.000
    H345     H        0.07727    0.26123    0.88573    1.000
    O291     O        0.21017    0.25293    0.86608    1.000
    O292     O        0.18176    0.29002    0.89131    1.000
    Ti103    Ti       0.29955    0.29837    0.86967    1.000
    Ti104    Ti       0.26314    0.35027    0.90606    1.000
    O293     O        0.29147    0.36533    0.87655    1.000
    O294     O        0.29587    0.22453    0.87629    1.000
    O295     O        0.27952    0.28607    0.89923    1.000
    O296     O        0.38267    0.34253    0.87336    1.000
    O297     O        0.22941    0.30984    0.93176    1.000
    C654     C        0.30367    0.41613    0.86439    1.000
    Ti105    Ti       0.26960    0.21407    0.90614    1.000
    C655     C        0.30787    0.18763    0.86396    1.000
    P35      P        0.23423    0.26582    0.94503    1.000
    C656     C        0.36037    0.45613    0.86303    1.000
    C657     C        0.24977    0.40743    0.85483    1.000
    O298     O        0.23667    0.21915    0.93239    1.000
    C658     C        0.36137    0.19543    0.86453    1.000
    C659     C        0.25807    0.15183    0.85063    1.000
    C660     C        0.17007    0.23253    0.95974    1.000
    C661     C        0.16997    0.22303    0.97913    1.000
    C662     C        0.11957    0.22473    0.95153    1.000
    H346     H        0.20597    0.23613    0.98583    1.000
    C663     C        0.11897    0.19423    0.99073    1.000
    C664     C        0.06677    0.19483    0.96193    1.000
    H347     H        0.12037    0.24003    0.93833    1.000
    H348     H        0.12027    0.18073    0.00413    1.000
    C665     C        0.07417    0.18653    0.98413    1.000
    H349     H        0.04797    0.21743    0.96103    1.000
    H350     H        0.04237    0.17483    0.99323    1.000
    I42      I        0.77619    0.41113    0.14674    1.000
    Cu42     Cu       0.68659    0.39846    0.16820    1.000
    N42      N        0.70963    0.47477    0.18273    1.000
    C666     C        0.76393    0.50977    0.18927    1.000
    C667     C        0.66933    0.48527    0.18918    1.000
    C668     C        0.61703    0.28227    0.09545    1.000
    H351     H        0.79393    0.50347    0.18447    1.000
    C669     C        0.77733    0.55357    0.20245    1.000
    C670     C        0.67953    0.52857    0.20261    1.000
    H352     H        0.63113    0.46167    0.18427    1.000
    H353     H        0.61873    0.24917    0.10017    1.000
    C671     C        0.73523    0.56417    0.20965    1.000
    C672     C        0.83883    0.59097    0.20978    1.000
    H354     H        0.64883    0.53427    0.20707    1.000
    H355     H        0.74393    0.59457    0.21907    1.000
    O299     O        0.87683    0.58627    0.19942    1.000
    O300     O        0.84842    0.62336    0.22465    1.000
    Ti106    Ti       0.96621    0.63171    0.20300    1.000
    Ti107    Ti       0.92980    0.68361    0.23940    1.000
    O301     O        0.95813    0.69867    0.20989    1.000
    O302     O        0.96253    0.55787    0.20963    1.000
    O303     O        0.94618    0.61941    0.23257    1.000
    O304     O        0.04933    0.67587    0.20670    1.000
    O305     O        0.89607    0.64318    0.26510    1.000
    C673     C        0.97033    0.74947    0.19773    1.000
    Ti108    Ti       0.93626    0.54741    0.23947    1.000
    C674     C        0.97453    0.52097    0.19730    1.000
    P36      P        0.90089    0.59916    0.27837    1.000
    C675     C        0.02703    0.78947    0.19637    1.000
    C676     C        0.91643    0.74077    0.18817    1.000
    O306     O        0.90333    0.55249    0.26573    1.000
    C677     C        0.02803    0.52877    0.19787    1.000
    C678     C        0.92473    0.48517    0.18397    1.000
    C679     C        0.83673    0.56587    0.29308    1.000
    C680     C        0.83663    0.55637    0.31247    1.000
    C681     C        0.78623    0.55807    0.28487    1.000
    H356     H        0.87263    0.56947    0.31917    1.000
    C682     C        0.78563    0.52757    0.32407    1.000
    C683     C        0.73343    0.52817    0.29527    1.000
    H357     H        0.78703    0.57337    0.27167    1.000
    H358     H        0.78693    0.51407    0.33747    1.000
    C684     C        0.74083    0.51987    0.31747    1.000
    H359     H        0.71463    0.55077    0.29437    1.000
    H360     H        0.70903    0.50817    0.32657    1.000
    Cu43     Cu       0.66667    0.33333    0.03144    1.000
    I43      I        0.66667    0.33333    0.96416    1.000
    N43      N        0.66667    0.33333    0.06353    1.000
    Cu44     Cu       0.33333    0.66667    0.36477    1.000
    I44      I        0.33333    0.66667    0.29750    1.000
    N44      N        0.33333    0.66667    0.39686    1.000
    Cu45     Cu       0.00000    0.00000    0.69811    1.000
    I45      I        0.00000    0.00000    0.63083    1.000
    N45      N        0.00000    0.00000    0.73020    1.000
    Cu46     Cu       0.33333    0.66667    0.46856    1.000
    I46      I        0.33333    0.66667    0.53584    1.000
    N46      N        0.33333    0.66667    0.43647    1.000
    Cu47     Cu       0.00000    0.00000    0.80189    1.000
    I47      I        0.00000    0.00000    0.86917    1.000
    N47      N        0.00000    0.00000    0.76980    1.000
    Cu48     Cu       0.66667    0.33333    0.13523    1.000
    I48      I        0.66667    0.33333    0.20250    1.000
    N48      N        0.66667    0.33333    0.10314    1.000
    O307     O        0.33333    0.39762    0.91667    1.000
    O308     O        0.33333    0.21642    0.91667    1.000
    O309     O        0.00000    0.73095    0.25000    1.000
    O310     O        0.00000    0.54975    0.25000    1.000
    O311     O        0.60238    0.93572    0.91667    1.000
    O312     O        0.78358    0.11692    0.91667    1.000
    O313     O        0.26905    0.26905    0.25000    1.000
    O314     O        0.45025    0.45025    0.25000    1.000
    O315     O        0.06428    0.66667    0.91667    1.000
    O316     O        0.88308    0.66667    0.91667    1.000
    O317     O        0.73095    0.00000    0.25000    1.000
    O318     O        0.54975    0.00000    0.25000    1.000
    O319     O        0.39762    0.33333    0.58333    1.000
    O320     O        0.21642    0.33333    0.58333    1.000
    O321     O        0.93572    0.60238    0.58333    1.000
    O322     O        0.11692    0.78358    0.58333    1.000
    O323     O        0.66667    0.06428    0.58333    1.000
    O324     O        0.66667    0.88308    0.58333    1.000
