# CIF file generated by openbabel 3.1.0, see https://openbabel.org
data_I
_chemical_name_common 'image0'
_cell_length_a 10.711
_cell_length_b 13.7963
_cell_length_c 18.7511
_cell_angle_alpha 90
_cell_angle_beta 98.158
_cell_angle_gamma 90
_space_group_name_H-M_alt 'P 1'
_space_group_name_Hall 'P 1'
loop_
    _symmetry_equiv_pos_as_xyz
    x,y,z
loop_
    _atom_site_label
    _atom_site_type_symbol
    _atom_site_fract_x
    _atom_site_fract_y
    _atom_site_fract_z
    _atom_site_occupancy
    Ni1      Ni       0.39800    0.26770    0.52411    1.000
    C1       C        0.40950    0.13530    0.33316    1.000
    C2       C        0.41630    0.14610    0.25982    1.000
    H1       H        0.38540    0.20370    0.23580    1.000
    C3       C        0.46760    0.07360    0.22147    1.000
    C4       C        0.51850    0.99090    0.25747    1.000
    H2       H        0.55410    0.94120    0.23170    1.000
    C5       C        0.51700    0.98150    0.33119    1.000
    C6       C        0.45760    0.05300    0.36822    1.000
    H3       H        0.45080    0.04420    0.41780    1.000
    C7       C        0.35580    0.21730    0.37298    1.000
    C8       C        0.47060    0.08530    0.14124    1.000
    C9       C        0.58370    0.89990    0.37268    1.000
    O1       O        0.31788    0.19516    0.43240    1.000
    O2       O        0.35450    0.30043    0.34731    1.000
    O3       O        0.47010    0.17183    0.11897    1.000
    O4       O        0.47321    0.00972    0.10483    1.000
    O5       O        0.68100    0.86617    0.34414    1.000
    O6       O        0.55058    0.86767    0.42758    1.000
    C10      C        0.22090    0.76690    0.97319    1.000
    C11      C        0.10550    0.81190    0.97071    1.000
    H4       H        0.10220    0.87960    0.97940    1.000
    C12      C        0.99230    0.75910    0.95544    1.000
    C13      C        0.99770    0.65970    0.94158    1.000
    H5       H        0.92210    0.62370    0.92960    1.000
    C14      C        0.11370    0.61400    0.94532    1.000
    C15      C        0.22450    0.66690    0.96119    1.000
    H6       H        0.30360    0.63490    0.96390    1.000
    C16      C        0.34470    0.81820    0.99093    1.000
    C17      C        0.86910    0.80710    0.96075    1.000
    C18      C        0.12090    0.50640    0.93342    1.000
    O7       O        0.43681    0.76484    0.01428    1.000
    O8       O        0.34687    0.90802    0.98147    1.000
    O9       O        0.86810    0.89016    0.98774    1.000
    O10      O        0.76999    0.75869    0.93853    1.000
    O11      O        0.03820    0.45939    0.90137    1.000
    O12      O        0.23160    0.47105    0.96491    1.000
    O13      O        0.64169    0.89703    0.03023    1.000
    Ni2      Ni       0.60200    0.76770    0.97589    1.000
    C19      C        0.59050    0.63530    0.16684    1.000
    C20      C        0.58370    0.64610    0.24018    1.000
    H7       H        0.61460    0.70370    0.26420    1.000
    C21      C        0.53240    0.57360    0.27853    1.000
    C22      C        0.48150    0.49090    0.24253    1.000
    H8       H        0.44590    0.44120    0.26830    1.000
    C23      C        0.48300    0.48150    0.16881    1.000
    C24      C        0.54240    0.55300    0.13178    1.000
    H9       H        0.54920    0.54420    0.08220    1.000
    C25      C        0.64420    0.71730    0.12702    1.000
    C26      C        0.52940    0.58530    0.35876    1.000
    C27      C        0.41630    0.39990    0.12732    1.000
    O14      O        0.68212    0.69516    0.06760    1.000
    O15      O        0.64550    0.80043    0.15269    1.000
    O16      O        0.52990    0.67183    0.38103    1.000
    O17      O        0.52679    0.50972    0.39517    1.000
    O18      O        0.31900    0.36617    0.15586    1.000
    O19      O        0.44942    0.36767    0.07242    1.000
    C28      C        0.77910    0.26690    0.52681    1.000
    C29      C        0.89450    0.31190    0.52929    1.000
    H10      H        0.89780    0.37960    0.52060    1.000
    C30      C        0.00770    0.25910    0.54456    1.000
    C31      C        0.00230    0.15970    0.55842    1.000
    H11      H        0.07790    0.12370    0.57040    1.000
    C32      C        0.88630    0.11400    0.55468    1.000
    C33      C        0.77550    0.16690    0.53881    1.000
    H12      H        0.69640    0.13490    0.53610    1.000
    C34      C        0.65530    0.31820    0.50907    1.000
    C35      C        0.13090    0.30710    0.53925    1.000
    C36      C        0.87910    0.00640    0.56658    1.000
    O20      O        0.56319    0.26484    0.48572    1.000
    O21      O        0.65313    0.40802    0.51853    1.000
    O22      O        0.13190    0.39016    0.51226    1.000
    O23      O        0.23001    0.25869    0.56147    1.000
    O24      O        0.96180    0.95939    0.59863    1.000
    O25      O        0.76840    0.97105    0.53509    1.000
    O26      O        0.35831    0.39703    0.46977    1.000
    Ni3      Ni       0.60200    0.73230    0.47589    1.000
    C37      C        0.59050    0.86470    0.66684    1.000
    C38      C        0.58370    0.85390    0.74018    1.000
    H13      H        0.61460    0.79630    0.76420    1.000
    C39      C        0.53240    0.92640    0.77853    1.000
    C40      C        0.48150    0.00910    0.74253    1.000
    H14      H        0.44590    0.05880    0.76830    1.000
    C41      C        0.48300    0.01850    0.66881    1.000
    C42      C        0.54240    0.94700    0.63178    1.000
    H15      H        0.54920    0.95580    0.58220    1.000
    C43      C        0.64420    0.78270    0.62702    1.000
    C44      C        0.52940    0.91470    0.85876    1.000
    C45      C        0.41630    0.10010    0.62732    1.000
    O27      O        0.68212    0.80484    0.56760    1.000
    O28      O        0.64550    0.69957    0.65269    1.000
    O29      O        0.52990    0.82817    0.88103    1.000
    O30      O        0.52679    0.99028    0.89517    1.000
    O31      O        0.31900    0.13383    0.65586    1.000
    O32      O        0.44942    0.13233    0.57242    1.000
    C46      C        0.77910    0.23310    0.02681    1.000
    C47      C        0.89450    0.18810    0.02929    1.000
    H16      H        0.89780    0.12040    0.02060    1.000
    C48      C        0.00770    0.24090    0.04456    1.000
    C49      C        0.00230    0.34030    0.05842    1.000
    H17      H        0.07790    0.37630    0.07040    1.000
    C50      C        0.88630    0.38600    0.05468    1.000
    C51      C        0.77550    0.33310    0.03881    1.000
    H18      H        0.69640    0.36510    0.03610    1.000
    C52      C        0.65530    0.18180    0.00907    1.000
    C53      C        0.13090    0.19290    0.03925    1.000
    C54      C        0.87910    0.49360    0.06658    1.000
    O33      O        0.56319    0.23516    0.98572    1.000
    O34      O        0.65313    0.09198    0.01853    1.000
    O35      O        0.13190    0.10984    0.01226    1.000
    O36      O        0.23001    0.24131    0.06147    1.000
    O37      O        0.96180    0.54061    0.09863    1.000
    O38      O        0.76840    0.52895    0.03509    1.000
    O39      O        0.35831    0.10297    0.96977    1.000
    Ni4      Ni       0.39800    0.23230    0.02411    1.000
    C55      C        0.40950    0.36470    0.83316    1.000
    C56      C        0.41630    0.35390    0.75982    1.000
    H19      H        0.38540    0.29630    0.73580    1.000
    C57      C        0.46760    0.42640    0.72147    1.000
    C58      C        0.51850    0.50910    0.75747    1.000
    H20      H        0.55410    0.55880    0.73170    1.000
    C59      C        0.51700    0.51850    0.83119    1.000
    C60      C        0.45760    0.44700    0.86822    1.000
    H21      H        0.45080    0.45580    0.91780    1.000
    C61      C        0.35580    0.28270    0.87298    1.000
    C62      C        0.47060    0.41470    0.64124    1.000
    C63      C        0.58370    0.60010    0.87268    1.000
    O40      O        0.31788    0.30484    0.93240    1.000
    O41      O        0.35450    0.19957    0.84731    1.000
    O42      O        0.47010    0.32817    0.61897    1.000
    O43      O        0.47321    0.49028    0.60483    1.000
    O44      O        0.68100    0.63383    0.84414    1.000
    O45      O        0.55058    0.63233    0.92758    1.000
    C64      C        0.22090    0.73310    0.47319    1.000
    C65      C        0.10550    0.68810    0.47071    1.000
    H22      H        0.10220    0.62040    0.47940    1.000
    C66      C        0.99230    0.74090    0.45544    1.000
    C67      C        0.99770    0.84030    0.44158    1.000
    H23      H        0.92210    0.87630    0.42960    1.000
    C68      C        0.11370    0.88600    0.44532    1.000
    C69      C        0.22450    0.83310    0.46119    1.000
    H24      H        0.30360    0.86510    0.46390    1.000
    C70      C        0.34470    0.68180    0.49093    1.000
    C71      C        0.86910    0.69290    0.46075    1.000
    C72      C        0.12090    0.99360    0.43342    1.000
    O46      O        0.43681    0.73516    0.51428    1.000
    O47      O        0.34687    0.59198    0.48147    1.000
    O48      O        0.86810    0.60984    0.48774    1.000
    O49      O        0.76999    0.74131    0.43853    1.000
    O50      O        0.03820    0.04061    0.40137    1.000
    O51      O        0.23160    0.02895    0.46491    1.000
    O52      O        0.64169    0.60297    0.53023    1.000
    Ni5      Ni       0.50000    0.00000    0.00000    1.000
    Ni6      Ni       0.50000    0.50000    0.50000    1.000
