# CIF file generated by openbabel 3.1.0, see https://openbabel.org
data_I
_chemical_name_common 'image0'
_cell_length_a 15.785
_cell_length_b 18.275
_cell_length_c 28.066
_cell_angle_alpha 104.478
_cell_angle_beta 92.048
_cell_angle_gamma 107.86
_space_group_name_H-M_alt 'P 1'
_space_group_name_Hall 'P 1'
loop_
    _symmetry_equiv_pos_as_xyz
    x,y,z
loop_
    _atom_site_label
    _atom_site_type_symbol
    _atom_site_fract_x
    _atom_site_fract_y
    _atom_site_fract_z
    _atom_site_occupancy
    C1       C        0.94460    0.18570    0.24070    1.000
    C2       C        0.87760    0.10450    0.21960    1.000
    C3       C        0.79940    0.09340    0.19150    1.000
    H1       H        0.78390    0.13760    0.18910    1.000
    C4       C        0.74280    0.01700    0.16670    1.000
    H2       H        0.69090    0.01070    0.14710    1.000
    C5       C        0.76340    0.95020    0.17090    1.000
    C6       C        0.84010    0.96140    0.20180    1.000
    H3       H        0.85250    0.91700    0.20670    1.000
    C7       C        0.89910    0.03820    0.22570    1.000
    H4       H        0.95130    0.04490    0.24520    1.000
    C8       C        0.71480    0.87060    0.13670    1.000
    C9       C        0.69910    0.86490    0.08680    1.000
    H5       H        0.71310    0.91160    0.07670    1.000
    C10      C        0.66350    0.79270    0.05170    1.000
    C11      C        0.63900    0.72140    0.06640    1.000
    C12      C        0.65270    0.72700    0.11780    1.000
    C13      C        0.69000    0.79970    0.15060    1.000
    C14      C        0.65680    0.79300    0.99890    1.000
    C15      C        0.61610    0.84160    0.98300    1.000
    H6       H        0.58550    0.86870    0.00470    1.000
    C16      C        0.62030    0.85040    0.93630    1.000
    H7       H        0.59080    0.88190    0.92630    1.000
    C17      C        0.66820    0.81300    0.90310    1.000
    C18      C        0.70780    0.76390    0.91770    1.000
    H8       H        0.73920    0.73790    0.89590    1.000
    C19      C        0.70150    0.75250    0.96510    1.000
    H9       H        0.72710    0.71780    0.97420    1.000
    C20      C        0.67360    0.82540    0.85340    1.000
    C21      C        0.63660    0.59010    0.02380    1.000
    H10      H        0.59960    0.54620    0.03460    1.000
    H11      H        0.69510    0.61030    0.04240    1.000
    H12      H        0.64170    0.57210    0.98920    1.000
    C22      C        0.63300    0.82210    0.22780    1.000
    H13      H        0.64690    0.82740    0.26240    1.000
    H14      H        0.57700    0.78030    0.21520    1.000
    H15      H        0.62870    0.87160    0.22380    1.000
    C23      C        0.41100    0.61900    0.09460    1.000
    H16      H        0.37330    0.64990    0.09020    1.000
    H17      H        0.37510    0.56950    0.09990    1.000
    H18      H        0.44020    0.60820    0.06550    1.000
    C24      C        0.83930    0.69640    0.17700    1.000
    H19      H        0.89580    0.71590    0.16500    1.000
    H20      H        0.84500    0.66520    0.19910    1.000
    H21      H        0.82180    0.74080    0.19440    1.000
    C25      C        0.62280    0.65300    0.13560    1.000
    C26      C        0.53540    0.62430    0.14510    1.000
    C27      C        0.50940    0.55920    0.16550    1.000
    C28      C        0.57230    0.52700    0.17620    1.000
    H22      H        0.55490    0.48490    0.19050    1.000
    C29      C        0.66150    0.55320    0.16690    1.000
    C30      C        0.68620    0.61780    0.14660    1.000
    C31      C        0.41730    0.52920    0.18070    1.000
    C32      C        0.37100    0.44730    0.16480    1.000
    H23      H        0.39290    0.41300    0.14220    1.000
    C33      C        0.29060    0.41830    0.18400    1.000
    H24      H        0.25730    0.36430    0.17260    1.000
    C34      C        0.38210    0.57970    0.21380    1.000
    H25      H        0.41140    0.63460    0.22270    1.000
    C35      C        0.30510    0.54960    0.23350    1.000
    H26      H        0.28290    0.58350    0.25630    1.000
    C36      C        0.26020    0.46700    0.21870    1.000
    C37      C        0.18240    0.43680    0.24350    1.000
    C38      C        0.72600    0.51760    0.18380    1.000
    C39      C        0.72460    0.50220    0.22950    1.000
    H27      H        0.68000    0.51210    0.24840    1.000
    C40      C        0.78390    0.47370    0.24890    1.000
    H28      H        0.78110    0.46590    0.28030    1.000
    C41      C        0.84980    0.45650    0.21980    1.000
    C42      C        0.85390    0.47040    0.17360    1.000
    H29      H        0.89740    0.45900    0.15430    1.000
    C43      C        0.79390    0.50110    0.15620    1.000
    H30      H        0.79820    0.51130    0.12540    1.000
    C44      C        0.91400    0.42350    0.23830    1.000
    C45      C        0.20780    0.07510    0.27010    1.000
    C46      C        0.12700    0.04740    0.29210    1.000
    C47      C        0.09590    0.09370    0.32630    1.000
    H31      H        0.12640    0.14840    0.33620    1.000
    C48      C        0.02170    0.06480    0.34750    1.000
    H32      H        0.00190    0.09950    0.37110    1.000
    C49      C        0.97360    0.98080    0.33370    1.000
    C50      C        0.00830    0.93130    0.30010    1.000
    H33      H        0.97930    0.87640    0.29120    1.000
    C51      C        0.08380    0.96130    0.27970    1.000
    H34      H        0.10750    0.92720    0.25810    1.000
    C52      C        0.88720    0.95220    0.35090    1.000
    C53      C        0.82050    0.98890    0.34490    1.000
    H35      H        0.83730    0.03330    0.33260    1.000
    C54      C        0.73530    0.96430    0.35570    1.000
    C55      C        0.71100    0.89860    0.37550    1.000
    C56      C        0.77190    0.85910    0.38240    1.000
    C57      C        0.85860    0.88750    0.37140    1.000
    C58      C        0.99450    0.88630    0.40920    1.000
    H36      H        0.02590    0.85030    0.41290    1.000
    H37      H        0.97910    0.91000    0.44080    1.000
    H38      H        0.03210    0.92750    0.39650    1.000
    C59      C        0.54360    0.83110    0.35570    1.000
    H39      H        0.53840    0.86040    0.33230    1.000
    H40      H        0.49430    0.82700    0.37500    1.000
    H41      H        0.54270    0.77840    0.33820    1.000
    C60      C        0.67210    0.00300    0.34220    1.000
    C61      C        0.67590    0.01860    0.29590    1.000
    H42      H        0.71890    0.00670    0.27640    1.000
    C62      C        0.61660    0.05180    0.27830    1.000
    H43      H        0.61910    0.05970    0.24680    1.000
    C63      C        0.55320    0.07320    0.30790    1.000
    C64      C        0.55180    0.05700    0.35470    1.000
    H44      H        0.50950    0.06860    0.37480    1.000
    C65      C        0.61140    0.02470    0.37130    1.000
    H45      H        0.61020    0.01740    0.40290    1.000
    C66      C        0.70910    0.70200    0.28470    1.000
    H46      H        0.67890    0.69570    0.25290    1.000
    H47      H        0.72350    0.65460    0.28450    1.000
    H48      H        0.76330    0.74700    0.29160    1.000
    C67      C        0.81130    0.90450    0.50940    1.000
    H49      H        0.76600    0.91970    0.49450    1.000
    H50      H        0.86240    0.95120    0.52380    1.000
    H51      H        0.78790    0.88000    0.53480    1.000
    C68      C        0.74100    0.78430    0.39850    1.000
    C69      C        0.68550    0.71370    0.36730    1.000
    C70      C        0.65990    0.64160    0.37970    1.000
    C71      C        0.69510    0.64430    0.42810    1.000
    H52      H        0.67860    0.59770    0.43830    1.000
    C72      C        0.75370    0.71450    0.46050    1.000
    C73      C        0.77660    0.78470    0.44570    1.000
    C74      C        0.78670    0.70990    0.51060    1.000
    C75      C        0.86970    0.71070    0.52060    1.000
    H53      H        0.90960    0.71960    0.49740    1.000
    C76      C        0.89970    0.69860    0.56440    1.000
    H54      H        0.95680    0.69500    0.56910    1.000
    C77      C        0.84420    0.69220    0.60020    1.000
    C78      C        0.76570    0.70360    0.59310    1.000
    H55      H        0.73040    0.70640    0.61880    1.000
    C79      C        0.73530    0.71130    0.54750    1.000
    H56      H        0.67950    0.71740    0.54290    1.000
    C80      C        0.87260    0.68000    0.64770    1.000
    C81      C        0.59950    0.56640    0.34900    1.000
    C82      C        0.51640    0.56070    0.32470    1.000
    H57      H        0.50170    0.60640    0.32520    1.000
    C83      C        0.45740    0.48540    0.30000    1.000
    H58      H        0.40460    0.48260    0.28280    1.000
    C84      C        0.47150    0.41660    0.29940    1.000
    C85      C        0.55840    0.42120    0.32090    1.000
    H59      H        0.57440    0.37540    0.31760    1.000
    C86      C        0.61700    0.49570    0.34650    1.000
    H60      H        0.67080    0.49850    0.36280    1.000
    C87      C        0.40620    0.33380    0.27460    1.000
    C88      C        0.49100    0.10520    0.28920    1.000
    O1       O        0.02500    0.19250    0.24770    1.000
    O2       O        0.91650    0.24470    0.24730    1.000
    O3       O        0.92140    0.42530    0.28470    1.000
    O4       O        0.96460    0.39750    0.21100    1.000
    O5       O        0.14970    0.47550    0.27640    1.000
    O6       O        0.14400    0.35470    0.22952    1.000
    O7       O        0.23540    0.15680    0.27410    1.000
    O8       O        0.25400    0.03710    0.24820    1.000
    O9       O        0.72000    0.78890    0.82470    1.000
    O10      O        0.63530    0.86760    0.83990    1.000
    O11      O        0.32430    0.32970    0.26597    1.000
    O12      O        0.43880    0.27750    0.26490    1.000
    O13      O        0.48540    0.10260    0.24310    1.000
    O14      O        0.43660    0.13220    0.31520    1.000
    O15      O        0.93630    0.65240    0.64880    1.000
    O16      O        0.83230    0.69850    0.68380    1.000
    O17      O        0.47570    0.66210    0.13570    1.000
    O18      O        0.77360    0.64830    0.13650    1.000
    O19      O        0.59840    0.64980    0.03140    1.000
    O20      O        0.70310    0.80270    0.20100    1.000
    O21      O        0.65270    0.71520    0.32160    1.000
    O22      O        0.83530    0.85430    0.47600    1.000
    O23      O        0.62340    0.87050    0.38670    1.000
    O24      O        0.91540    0.84380    0.37580    1.000
    Nd1      Nd       0.17786    0.23449    0.23224    1.000
    Cd1      Cd       0.36935    0.14893    0.24110    1.000
    Cd2      Cd       0.02574    0.36105    0.27778    1.000
    C89      C        0.05540    0.81430    0.75930    1.000
    C90      C        0.12240    0.89550    0.78040    1.000
    C91      C        0.20060    0.90660    0.80850    1.000
    H61      H        0.21610    0.86240    0.81090    1.000
    C92      C        0.25720    0.98300    0.83330    1.000
    H62      H        0.30910    0.98930    0.85290    1.000
    C93      C        0.23660    0.04980    0.82910    1.000
    C94      C        0.15990    0.03860    0.79820    1.000
    H63      H        0.14750    0.08300    0.79330    1.000
    C95      C        0.10090    0.96180    0.77430    1.000
    H64      H        0.04870    0.95510    0.75480    1.000
    C96      C        0.28520    0.12940    0.86330    1.000
    C97      C        0.30090    0.13510    0.91320    1.000
    H65      H        0.28690    0.08840    0.92330    1.000
    C98      C        0.33650    0.20730    0.94830    1.000
    C99      C        0.36100    0.27860    0.93360    1.000
    C100     C        0.34730    0.27300    0.88220    1.000
    C101     C        0.31000    0.20030    0.84940    1.000
    C102     C        0.34320    0.20700    0.00110    1.000
    C103     C        0.38390    0.15840    0.01700    1.000
    H66      H        0.41450    0.13130    0.99530    1.000
    C104     C        0.37970    0.14960    0.06370    1.000
    H67      H        0.40920    0.11810    0.07370    1.000
    C105     C        0.33180    0.18700    0.09690    1.000
    C106     C        0.29220    0.23610    0.08230    1.000
    H68      H        0.26080    0.26210    0.10410    1.000
    C107     C        0.29850    0.24750    0.03490    1.000
    H69      H        0.27290    0.28220    0.02580    1.000
    C108     C        0.32640    0.17460    0.14660    1.000
    C109     C        0.36340    0.40990    0.97620    1.000
    H70      H        0.40040    0.45380    0.96540    1.000
    H71      H        0.30490    0.38970    0.95760    1.000
    H72      H        0.35830    0.42790    0.01080    1.000
    C110     C        0.36700    0.17790    0.77220    1.000
    H73      H        0.35310    0.17260    0.73760    1.000
    H74      H        0.42300    0.21970    0.78480    1.000
    H75      H        0.37130    0.12840    0.77620    1.000
    C111     C        0.58900    0.38100    0.90540    1.000
    H76      H        0.62670    0.35010    0.90980    1.000
    H77      H        0.62490    0.43050    0.90010    1.000
    H78      H        0.55980    0.39180    0.93450    1.000
    C112     C        0.16070    0.30360    0.82300    1.000
    H79      H        0.10420    0.28410    0.83500    1.000
    H80      H        0.15500    0.33480    0.80090    1.000
    H81      H        0.17820    0.25920    0.80560    1.000
    C113     C        0.37720    0.34700    0.86440    1.000
    C114     C        0.46460    0.37570    0.85490    1.000
    C115     C        0.49060    0.44080    0.83450    1.000
    C116     C        0.42770    0.47300    0.82380    1.000
    H82      H        0.44510    0.51510    0.80950    1.000
    C117     C        0.33850    0.44680    0.83310    1.000
    C118     C        0.31380    0.38220    0.85340    1.000
    C119     C        0.58270    0.47080    0.81930    1.000
    C120     C        0.62900    0.55270    0.83520    1.000
    H83      H        0.60710    0.58700    0.85780    1.000
    C121     C        0.70940    0.58170    0.81600    1.000
    H84      H        0.74270    0.63570    0.82740    1.000
    C122     C        0.61790    0.42030    0.78620    1.000
    H85      H        0.58860    0.36540    0.77730    1.000
    C123     C        0.69490    0.45040    0.76650    1.000
    H86      H        0.71710    0.41650    0.74370    1.000
    C124     C        0.73980    0.53300    0.78130    1.000
    C125     C        0.81760    0.56320    0.75650    1.000
    C126     C        0.27400    0.48240    0.81620    1.000
    C127     C        0.27540    0.49780    0.77050    1.000
    H87      H        0.32000    0.48790    0.75160    1.000
    C128     C        0.21610    0.52630    0.75110    1.000
    H88      H        0.21890    0.53410    0.71970    1.000
    C129     C        0.15020    0.54350    0.78020    1.000
    C130     C        0.14610    0.52960    0.82640    1.000
    H89      H        0.10260    0.54100    0.84570    1.000
    C131     C        0.20610    0.49890    0.84380    1.000
    H90      H        0.20180    0.48870    0.87460    1.000
    C132     C        0.08600    0.57650    0.76170    1.000
    C133     C        0.79220    0.92490    0.72990    1.000
    C134     C        0.87300    0.95260    0.70790    1.000
    C135     C        0.90410    0.90630    0.67370    1.000
    H91      H        0.87360    0.85160    0.66380    1.000
    C136     C        0.97830    0.93520    0.65250    1.000
    H92      H        0.99810    0.90050    0.62890    1.000
    C137     C        0.02640    0.01920    0.66630    1.000
    C138     C        0.99170    0.06870    0.69990    1.000
    H93      H        0.02070    0.12360    0.70880    1.000
    C139     C        0.91620    0.03870    0.72030    1.000
    H94      H        0.89250    0.07280    0.74190    1.000
    C140     C        0.11280    0.04780    0.64910    1.000
    C141     C        0.17950    0.01110    0.65510    1.000
    H95      H        0.16270    0.96670    0.66740    1.000
    C142     C        0.26470    0.03570    0.64430    1.000
    C143     C        0.28900    0.10140    0.62450    1.000
    C144     C        0.22810    0.14090    0.61760    1.000
    C145     C        0.14140    0.11250    0.62860    1.000
    C146     C        0.00550    0.11370    0.59080    1.000
    H96      H        0.97410    0.14970    0.58710    1.000
    H97      H        0.02090    0.09000    0.55920    1.000
    H98      H        0.96790    0.07250    0.60350    1.000
    C147     C        0.45640    0.16890    0.64430    1.000
    H99      H        0.46160    0.13960    0.66770    1.000
    H100     H        0.50570    0.17300    0.62500    1.000
    H101     H        0.45730    0.22160    0.66180    1.000
    C148     C        0.32790    0.99700    0.65780    1.000
    C149     C        0.32410    0.98140    0.70410    1.000
    H102     H        0.28110    0.99330    0.72360    1.000
    C150     C        0.38340    0.94820    0.72170    1.000
    H103     H        0.38090    0.94030    0.75320    1.000
    C151     C        0.44680    0.92680    0.69210    1.000
    C152     C        0.44820    0.94300    0.64530    1.000
    H104     H        0.49050    0.93140    0.62520    1.000
    C153     C        0.38860    0.97530    0.62870    1.000
    H105     H        0.38980    0.98260    0.59710    1.000
    C154     C        0.29090    0.29800    0.71530    1.000
    H106     H        0.32110    0.30430    0.74710    1.000
    H107     H        0.27650    0.34540    0.71550    1.000
    H108     H        0.23670    0.25300    0.70840    1.000
    C155     C        0.18870    0.09550    0.49060    1.000
    H109     H        0.23400    0.08030    0.50550    1.000
    H110     H        0.13760    0.04880    0.47620    1.000
    H111     H        0.21210    0.12000    0.46520    1.000
    C156     C        0.25900    0.21570    0.60150    1.000
    C157     C        0.31450    0.28630    0.63270    1.000
    C158     C        0.34010    0.35840    0.62030    1.000
    C159     C        0.30490    0.35570    0.57190    1.000
    H112     H        0.32140    0.40230    0.56170    1.000
    C160     C        0.24630    0.28550    0.53950    1.000
    C161     C        0.22340    0.21530    0.55430    1.000
    C162     C        0.21330    0.29010    0.48940    1.000
    C163     C        0.13030    0.28930    0.47940    1.000
    H113     H        0.09040    0.28040    0.50260    1.000
    C164     C        0.10030    0.30140    0.43560    1.000
    H114     H        0.04320    0.30500    0.43090    1.000
    C165     C        0.15580    0.30780    0.39980    1.000
    C166     C        0.23430    0.29640    0.40690    1.000
    H115     H        0.26960    0.29360    0.38120    1.000
    C167     C        0.26470    0.28870    0.45250    1.000
    H116     H        0.32050    0.28260    0.45710    1.000
    C168     C        0.12740    0.32000    0.35230    1.000
    C169     C        0.40050    0.43360    0.65100    1.000
    C170     C        0.48360    0.43930    0.67530    1.000
    H117     H        0.49830    0.39360    0.67480    1.000
    C171     C        0.54260    0.51460    0.70000    1.000
    H118     H        0.59540    0.51740    0.71720    1.000
    C172     C        0.52850    0.58340    0.70060    1.000
    C173     C        0.44160    0.57880    0.67910    1.000
    H119     H        0.42560    0.62460    0.68240    1.000
    C174     C        0.38300    0.50430    0.65350    1.000
    H120     H        0.32920    0.50150    0.63720    1.000
    C175     C        0.59380    0.66620    0.72540    1.000
    C176     C        0.50900    0.89480    0.71080    1.000
    O25      O        0.97500    0.80750    0.75230    1.000
    O26      O        0.08350    0.75530    0.75270    1.000
    O27      O        0.07860    0.57470    0.71530    1.000
    O28      O        0.03540    0.60250    0.78900    1.000
    O29      O        0.85030    0.52450    0.72360    1.000
    O30      O        0.85600    0.64530    0.77048    1.000
    O31      O        0.76460    0.84320    0.72590    1.000
    O32      O        0.74600    0.96290    0.75180    1.000
    O33      O        0.28000    0.21110    0.17530    1.000
    O34      O        0.36470    0.13240    0.16010    1.000
    O35      O        0.67570    0.67030    0.73403    1.000
    O36      O        0.56120    0.72250    0.73510    1.000
    O37      O        0.51460    0.89740    0.75690    1.000
    O38      O        0.56340    0.86780    0.68480    1.000
    O39      O        0.06370    0.34760    0.35120    1.000
    O40      O        0.16770    0.30150    0.31620    1.000
    O41      O        0.52430    0.33790    0.86430    1.000
    O42      O        0.22640    0.35170    0.86350    1.000
    O43      O        0.40160    0.35020    0.96860    1.000
    O44      O        0.29690    0.19730    0.79900    1.000
    O45      O        0.34730    0.28480    0.67840    1.000
    O46      O        0.16470    0.14570    0.52400    1.000
    O47      O        0.37660    0.12950    0.61330    1.000
    O48      O        0.08460    0.15620    0.62420    1.000
    Nd2      Nd       0.82214    0.76551    0.76776    1.000
    Cd3      Cd       0.63065    0.85107    0.75890    1.000
    Cd4      Cd       0.97426    0.63895    0.72222    1.000
