# CIF file generated by openbabel 3.1.0, see https://openbabel.org
data_I
_chemical_name_common 'image0'
_cell_length_a 10.187
_cell_length_b 10.241
_cell_length_c 8.2137
_cell_angle_alpha 90.398
_cell_angle_beta 95.93
_cell_angle_gamma 117.325
_space_group_name_H-M_alt 'P 1'
_space_group_name_Hall 'P 1'
loop_
    _symmetry_equiv_pos_as_xyz
    x,y,z
loop_
    _atom_site_label
    _atom_site_type_symbol
    _atom_site_fract_x
    _atom_site_fract_y
    _atom_site_fract_z
    _atom_site_occupancy
    V1       V        0.98656    0.21530    0.35432    1.000
    V2       V        0.51973    0.78346    0.15204    1.000
    V3       V        0.78684    0.14798    0.69350    1.000
    P1       P        0.78310    0.88430    0.45570    1.000
    P2       P        0.18590    0.53680    0.20530    1.000
    P3       P        0.28670    0.87930    0.94100    1.000
    O1       O        0.11980    0.43050    0.33830    1.000
    O2       O        0.36620    0.78480    0.98090    1.000
    O3       O        0.88800    0.99750    0.34720    1.000
    O4       O        0.62720    0.79420    0.36820    1.000
    O5       O        0.13630    0.77400    0.84120    1.000
    O6       O        0.77280    0.95860    0.61480    1.000
    O7       O        0.26060    0.94160    0.09710    1.000
    O8       O        0.12600    0.44450    0.03460    1.000
    O9       O        0.89520    0.23600    0.49700    1.000
    O10      O        0.35300    0.60180    0.22480    1.000
    O11      O        0.12760    0.65040    0.20220    1.000
    O12      O        0.84430    0.77690    0.50500    1.000
    O13      O        0.37820    0.00280    0.83620    1.000
    V4       V        0.01344    0.78470    0.64568    1.000
    V5       V        0.48027    0.21654    0.84796    1.000
    V6       V        0.21316    0.85202    0.30650    1.000
    P4       P        0.21690    0.11570    0.54430    1.000
    P5       P        0.81410    0.46320    0.79470    1.000
    P6       P        0.71330    0.12070    0.05900    1.000
    O14      O        0.88020    0.56950    0.66170    1.000
    O15      O        0.63380    0.21520    0.01910    1.000
    O16      O        0.11200    0.00250    0.65280    1.000
    O17      O        0.37280    0.20580    0.63180    1.000
    O18      O        0.86370    0.22600    0.15880    1.000
    O19      O        0.22720    0.04140    0.38520    1.000
    O20      O        0.73940    0.05840    0.90290    1.000
    O21      O        0.87400    0.55550    0.96540    1.000
    O22      O        0.10480    0.76400    0.50300    1.000
    O23      O        0.64700    0.39820    0.77520    1.000
    O24      O        0.87240    0.34960    0.79780    1.000
    O25      O        0.15570    0.22310    0.49500    1.000
    O26      O        0.62180    0.99720    0.16380    1.000
