# CIF file generated by openbabel 3.1.0, see https://openbabel.org
data_I
_chemical_name_common 'image0'
_cell_length_a 11.2195
_cell_length_b 15.817
_cell_length_c 18.0989
_cell_angle_alpha 102.099
_cell_angle_beta 96.385
_cell_angle_gamma 98.947
_space_group_name_H-M_alt 'P 1'
_space_group_name_Hall 'P 1'
loop_
    _symmetry_equiv_pos_as_xyz
    x,y,z
loop_
    _atom_site_label
    _atom_site_type_symbol
    _atom_site_fract_x
    _atom_site_fract_y
    _atom_site_fract_z
    _atom_site_occupancy
    Cd1      Cd       0.73090    0.25003    0.63584    1.000
    Cd2      Cd       0.64148    0.67881    0.88470    1.000
    O1       O        0.52990    0.21040    0.59080    1.000
    O2       O        0.54410    0.35060    0.63760    1.000
    O3       O        0.93340    0.18890    0.63870    1.000
    O4       O        0.77350    0.13490    0.55020    1.000
    O5       O        0.67700    0.15490    0.72960    1.000
    O6       O        0.76030    0.29370    0.76470    1.000
    O7       O        0.40800    0.21530    0.01780    1.000
    O8       O        0.43650    0.19250    0.13260    1.000
    O9       O        0.81830    0.33480    0.56790    1.000
    O10      O        0.81140    0.44980    0.65100    1.000
    O11      O        0.72900    0.63680    0.77360    1.000
    O12      O        0.84460    0.73640    0.86910    1.000
    O13      O        0.46770    0.53070    0.74730    1.000
    O14      O        0.46380    0.59260    0.86710    1.000
    O15      O        0.19640    0.33640    0.95510    1.000
    O16      O        0.27000    0.42210    0.06810    1.000
    C1       C        0.34930    0.26820    0.57520    1.000
    C2       C        0.27090    0.18730    0.56380    1.000
    H1       H        0.30240    0.13910    0.57390    1.000
    C3       C        0.14620    0.17690    0.53750    1.000
    C4       C        0.10200    0.24860    0.52240    1.000
    H2       H        0.01910    0.24340    0.50600    1.000
    C5       C        0.17940    0.32900    0.53130    1.000
    H3       H        0.14810    0.37620    0.51890    1.000
    C6       C        0.30210    0.33960    0.55830    1.000
    H4       H        0.35280    0.39390    0.56520    1.000
    C7       C        0.06810    0.08730    0.52180    1.000
    C8       C        0.94820    0.06960    0.53640    1.000
    C9       C        0.88510    0.98380    0.51520    1.000
    H5       H        0.80600    0.97290    0.52640    1.000
    C10      C        0.48390    0.27720    0.60360    1.000
    C11      C        0.88340    0.13700    0.58010    1.000
    C12      C        0.71750    0.22230    0.78050    1.000
    C13      C        0.71260    0.22170    0.86320    1.000
    C14      C        0.78050    0.29080    0.92120    1.000
    H6       H        0.83190    0.33660    0.90940    1.000
    C15      C        0.76980    0.28980    0.99580    1.000
    H7       H        0.81290    0.33640    0.03450    1.000
    C16      C        0.69650    0.22130    0.01480    1.000
    H8       H        0.69090    0.22220    0.06580    1.000
    C17      C        0.63110    0.15120    0.95800    1.000
    C18      C        0.64130    0.15220    0.88280    1.000
    H9       H        0.59920    0.10510    0.84420    1.000
    C19      C        0.55940    0.07470    0.97860    1.000
    C20      C        0.47710    0.08320    0.03010    1.000
    C21      C        0.41910    0.00900    0.05160    1.000
    H10      H        0.36490    0.01580    0.08690    1.000
    C22      C        0.43890    0.17040    0.06280    1.000
    C23      C        0.84590    0.41350    0.59380    1.000
    C24      C        0.92500    0.46400    0.54790    1.000
    C25      C        0.00700    0.54400    0.57810    1.000
    C26      C        0.07930    0.57650    0.52830    1.000
    H11      H        0.13430    0.62910    0.54780    1.000
    C27      C        0.02400    0.59540    0.65810    1.000
    C28      C        0.13960    0.62250    0.70110    1.000
    H12      H        0.20670    0.60660    0.67950    1.000
    C29      C        0.15730    0.67230    0.77520    1.000
    H13      H        0.23570    0.69040    0.80250    1.000
    C30      C        0.05950    0.69510    0.80870    1.000
    H14      H        0.07160    0.72830    0.85870    1.000
    C31      C        0.94260    0.66880    0.76800    1.000
    C32      C        0.92360    0.62100    0.69150    1.000
    H15      H        0.84580    0.60650    0.66330    1.000
    C33      C        0.83190    0.68340    0.80590    1.000
    C34      C        0.42010    0.54190    0.80550    1.000
    C35      C        0.29320    0.49070    0.80310    1.000
    C36      C        0.23080    0.43600    0.73570    1.000
    H16      H        0.26970    0.42600    0.69280    1.000
    C37      C        0.11180    0.39630    0.73150    1.000
    H17      H        0.07000    0.36070    0.68550    1.000
    C38      C        0.05370    0.40860    0.79500    1.000
    H18      H        0.97210    0.38350    0.79140    1.000
    C39      C        0.11790    0.45900    0.86460    1.000
    C40      C        0.23630    0.49990    0.86770    1.000
    H19      H        0.27900    0.53430    0.91400    1.000
    C41      C        0.95890    0.52250    0.93360    1.000
    H20      H        0.93070    0.53730    0.88860    1.000
    C42      C        0.05670    0.47670    0.93410    1.000
    C43      C        0.09680    0.45390    0.00360    1.000
    C44      C        0.19570    0.39980    0.00780    1.000
    Cd3      Cd       0.63529    0.49321    0.69717    1.000
    Cd4      Cd       0.26910    0.74997    0.36416    1.000
    Cd5      Cd       0.35852    0.32119    0.11530    1.000
    O17      O        0.47010    0.78960    0.40920    1.000
    O18      O        0.45590    0.64940    0.36240    1.000
    O19      O        0.06660    0.81110    0.36130    1.000
    O20      O        0.22650    0.86510    0.44980    1.000
    O21      O        0.32300    0.84510    0.27040    1.000
    O22      O        0.23970    0.70630    0.23530    1.000
    O23      O        0.59200    0.78470    0.98220    1.000
    O24      O        0.56350    0.80750    0.86740    1.000
    O25      O        0.18170    0.66520    0.43210    1.000
    O26      O        0.18860    0.55020    0.34900    1.000
    O27      O        0.27100    0.36320    0.22640    1.000
    O28      O        0.15540    0.26360    0.13090    1.000
    O29      O        0.53230    0.46930    0.25270    1.000
    O30      O        0.53620    0.40740    0.13290    1.000
    O31      O        0.80360    0.66360    0.04490    1.000
    O32      O        0.73000    0.57790    0.93190    1.000
    C45      C        0.65070    0.73180    0.42480    1.000
    C46      C        0.72910    0.81270    0.43620    1.000
    H21      H        0.69760    0.86090    0.42610    1.000
    C47      C        0.85380    0.82310    0.46250    1.000
    C48      C        0.89800    0.75140    0.47760    1.000
    H22      H        0.98090    0.75660    0.49400    1.000
    C49      C        0.82060    0.67100    0.46870    1.000
    H23      H        0.85190    0.62380    0.48110    1.000
    C50      C        0.69790    0.66040    0.44170    1.000
    H24      H        0.64720    0.60610    0.43480    1.000
    C51      C        0.93190    0.91270    0.47820    1.000
    C52      C        0.05180    0.93040    0.46360    1.000
    C53      C        0.11490    0.01620    0.48480    1.000
    H25      H        0.19400    0.02710    0.47360    1.000
    C54      C        0.51610    0.72280    0.39640    1.000
    C55      C        0.11660    0.86300    0.41990    1.000
    C56      C        0.28250    0.77770    0.21950    1.000
    C57      C        0.28740    0.77830    0.13680    1.000
    C58      C        0.21950    0.70920    0.07880    1.000
    H26      H        0.16810    0.66340    0.09060    1.000
    C59      C        0.23020    0.71020    0.00420    1.000
    H27      H        0.18710    0.66360    0.96550    1.000
    C60      C        0.30350    0.77870    0.98520    1.000
    H28      H        0.30910    0.77780    0.93420    1.000
    C61      C        0.36890    0.84880    0.04200    1.000
    C62      C        0.35870    0.84780    0.11720    1.000
    H29      H        0.40080    0.89490    0.15580    1.000
    C63      C        0.44060    0.92530    0.02140    1.000
    C64      C        0.52290    0.91680    0.96990    1.000
    C65      C        0.58090    0.99100    0.94840    1.000
    H30      H        0.63510    0.98420    0.91310    1.000
    C66      C        0.56110    0.82960    0.93720    1.000
    C67      C        0.15410    0.58650    0.40620    1.000
    C68      C        0.07500    0.53600    0.45210    1.000
    C69      C        0.99300    0.45600    0.42190    1.000
    C70      C        0.92070    0.42350    0.47170    1.000
    H31      H        0.86570    0.37090    0.45220    1.000
    C71      C        0.97600    0.40460    0.34190    1.000
    C72      C        0.86040    0.37750    0.29890    1.000
    H32      H        0.79330    0.39340    0.32050    1.000
    C73      C        0.84270    0.32770    0.22480    1.000
    H33      H        0.76430    0.30960    0.19750    1.000
    C74      C        0.94050    0.30490    0.19130    1.000
    H34      H        0.92840    0.27170    0.14130    1.000
    C75      C        0.05740    0.33120    0.23200    1.000
    C76      C        0.07640    0.37900    0.30850    1.000
    H35      H        0.15420    0.39350    0.33670    1.000
    C77      C        0.16810    0.31660    0.19410    1.000
    C78      C        0.57990    0.45810    0.19450    1.000
    C79      C        0.70680    0.50930    0.19690    1.000
    C80      C        0.76920    0.56400    0.26430    1.000
    H36      H        0.73030    0.57400    0.30720    1.000
    C81      C        0.88820    0.60370    0.26850    1.000
    H37      H        0.93000    0.63930    0.31450    1.000
    C82      C        0.94630    0.59140    0.20500    1.000
    H38      H        0.02790    0.61650    0.20860    1.000
    C83      C        0.88210    0.54100    0.13540    1.000
    C84      C        0.76370    0.50010    0.13230    1.000
    H39      H        0.72100    0.46570    0.08600    1.000
    C85      C        0.04110    0.47750    0.06640    1.000
    H40      H        0.06930    0.46270    0.11140    1.000
    C86      C        0.94330    0.52330    0.06590    1.000
    C87      C        0.90320    0.54610    0.99640    1.000
    C88      C        0.80430    0.60020    0.99220    1.000
    Cd6      Cd       0.36471    0.50679    0.30283    1.000
