# CIF file generated by openbabel 3.1.0, see https://openbabel.org
data_I
_chemical_name_common 'image0'
_cell_length_a 11.21
_cell_length_b 12.383
_cell_length_c 13.696
_cell_angle_alpha 90
_cell_angle_beta 93.01
_cell_angle_gamma 90
_space_group_name_H-M_alt 'P 1'
_space_group_name_Hall 'P 1'
loop_
    _symmetry_equiv_pos_as_xyz
    x,y,z
loop_
    _atom_site_label
    _atom_site_type_symbol
    _atom_site_fract_x
    _atom_site_fract_y
    _atom_site_fract_z
    _atom_site_occupancy
    C1       C        0.04940    0.95160    0.17430    1.000
    C2       C        0.31800    0.86650    0.06250    1.000
    C3       C        0.41340    0.92080    0.13020    1.000
    C4       C        0.44580    0.03830    0.10860    1.000
    Nd1      Nd       0.15371    0.10204    0.03351    1.000
    O1       O        0.14040    0.00780    0.19900    1.000
    O2       O        0.99970    0.95950    0.08980    1.000
    O3       O        0.23540    0.91880    0.02540    1.000
    O4       O        0.33840    0.76780    0.04990    1.000
    O5       O        0.36100    0.10330    0.08910    1.000
    O6       O        0.55020    0.06560    0.12150    1.000
    C5       C        0.54940    0.45160    0.67430    1.000
    C6       C        0.81800    0.36650    0.56250    1.000
    C7       C        0.91340    0.42080    0.63020    1.000
    C8       C        0.94580    0.53830    0.60860    1.000
    Nd2      Nd       0.65371    0.60204    0.53351    1.000
    O7       O        0.64040    0.50780    0.69900    1.000
    O8       O        0.49970    0.45950    0.58980    1.000
    O9       O        0.73540    0.41880    0.52540    1.000
    O10      O        0.83840    0.26780    0.54990    1.000
    O11      O        0.86100    0.60330    0.58910    1.000
    O12      O        0.05020    0.56560    0.62150    1.000
    C9       C        0.95060    0.95160    0.32570    1.000
    C10      C        0.68200    0.86650    0.43750    1.000
    C11      C        0.58660    0.92080    0.36980    1.000
    C12      C        0.55420    0.03830    0.39140    1.000
    Nd3      Nd       0.84629    0.10204    0.46649    1.000
    O13      O        0.85960    0.00780    0.30100    1.000
    O14      O        0.00030    0.95950    0.41020    1.000
    O15      O        0.76460    0.91880    0.47460    1.000
    O16      O        0.66160    0.76780    0.45010    1.000
    O17      O        0.63900    0.10330    0.41090    1.000
    O18      O        0.44980    0.06560    0.37850    1.000
    C13      C        0.45060    0.45160    0.82570    1.000
    C14      C        0.18200    0.36650    0.93750    1.000
    C15      C        0.08660    0.42080    0.86980    1.000
    C16      C        0.05420    0.53830    0.89140    1.000
    Nd4      Nd       0.34629    0.60204    0.96649    1.000
    O19      O        0.35960    0.50780    0.80100    1.000
    O20      O        0.50030    0.45950    0.91020    1.000
    O21      O        0.26460    0.41880    0.97460    1.000
    O22      O        0.16160    0.26780    0.95010    1.000
    O23      O        0.13900    0.60330    0.91090    1.000
    O24      O        0.94980    0.56560    0.87850    1.000
    C17      C        0.95060    0.04840    0.82570    1.000
    C18      C        0.68200    0.13350    0.93750    1.000
    C19      C        0.58660    0.07920    0.86980    1.000
    C20      C        0.55420    0.96170    0.89140    1.000
    Nd5      Nd       0.84629    0.89796    0.96649    1.000
    O25      O        0.85960    0.99220    0.80100    1.000
    O26      O        0.00030    0.04050    0.91020    1.000
    O27      O        0.76460    0.08120    0.97460    1.000
    O28      O        0.66160    0.23220    0.95010    1.000
    O29      O        0.63900    0.89670    0.91090    1.000
    O30      O        0.44980    0.93440    0.87850    1.000
    C21      C        0.45060    0.54840    0.32570    1.000
    C22      C        0.18200    0.63350    0.43750    1.000
    C23      C        0.08660    0.57920    0.36980    1.000
    C24      C        0.05420    0.46170    0.39140    1.000
    Nd6      Nd       0.34629    0.39796    0.46649    1.000
    O31      O        0.35960    0.49220    0.30100    1.000
    O32      O        0.50030    0.54050    0.41020    1.000
    O33      O        0.26460    0.58120    0.47460    1.000
    O34      O        0.16160    0.73220    0.45010    1.000
    O35      O        0.13900    0.39670    0.41090    1.000
    O36      O        0.94980    0.43440    0.37850    1.000
    C25      C        0.04940    0.04840    0.67430    1.000
    C26      C        0.31800    0.13350    0.56250    1.000
    C27      C        0.41340    0.07920    0.63020    1.000
    C28      C        0.44580    0.96170    0.60860    1.000
    Nd7      Nd       0.15371    0.89796    0.53351    1.000
    O37      O        0.14040    0.99220    0.69900    1.000
    O38      O        0.99970    0.04050    0.58980    1.000
    O39      O        0.23540    0.08120    0.52540    1.000
    O40      O        0.33840    0.23220    0.54990    1.000
    O41      O        0.36100    0.89670    0.58910    1.000
    O42      O        0.55020    0.93440    0.62150    1.000
    C29      C        0.54940    0.54840    0.17430    1.000
    C30      C        0.81800    0.63350    0.06250    1.000
    C31      C        0.91340    0.57920    0.13020    1.000
    C32      C        0.94580    0.46170    0.10860    1.000
    Nd8      Nd       0.65371    0.39796    0.03351    1.000
    O43      O        0.64040    0.49220    0.19900    1.000
    O44      O        0.49970    0.54050    0.08980    1.000
    O45      O        0.73540    0.58120    0.02540    1.000
    O46      O        0.83840    0.73220    0.04990    1.000
    O47      O        0.86100    0.39670    0.08910    1.000
    O48      O        0.05020    0.43440    0.12150    1.000
    C33      C        0.00000    0.87620    0.25000    1.000
    C34      C        0.50000    0.37620    0.75000    1.000
    C35      C        0.00000    0.12380    0.75000    1.000
    C36      C        0.50000    0.62380    0.25000    1.000
