# CIF file generated by openbabel 3.1.0, see https://openbabel.org
data_I
_chemical_name_common 'image0'
_cell_length_a 28.526
_cell_length_b 20.41
_cell_length_c 18.118
_cell_angle_alpha 90
_cell_angle_beta 104.134
_cell_angle_gamma 90
_space_group_name_H-M_alt 'P 1'
_space_group_name_Hall 'P 1'
loop_
    _symmetry_equiv_pos_as_xyz
    x,y,z
loop_
    _atom_site_label
    _atom_site_type_symbol
    _atom_site_fract_x
    _atom_site_fract_y
    _atom_site_fract_z
    _atom_site_occupancy
    Gd1      Gd       0.68541    0.27991    0.01658    1.000
    O1       O        0.68168    0.23080    0.89714    1.000
    O2       O        0.74816    0.17516    0.89149    1.000
    O3       O        0.79984    0.87249    0.55612    1.000
    O4       O        0.73457    0.81241    0.54326    1.000
    O5       O        0.38347    0.20519    0.50087    1.000
    O6       O        0.39829    0.29685    0.56118    1.000
    C1       C        0.70445    0.19050    0.86814    1.000
    C2       C        0.67643    0.15663    0.79536    1.000
    C3       C        0.69700    0.10703    0.76388    1.000
    H1       H        0.72860    0.09450    0.78620    1.000
    C4       C        0.67127    0.07479    0.69858    1.000
    C5       C        0.69254    0.02041    0.66434    1.000
    C6       C        0.74216    0.02148    0.66427    1.000
    H2       H        0.76120    0.05670    0.68630    1.000
    C7       C        0.76255    0.97164    0.63235    1.000
    H3       H        0.79520    0.97360    0.63270    1.000
    C8       C        0.73506    0.91807    0.59933    1.000
    C9       C        0.75790    0.86421    0.56428    1.000
    C10      C        0.68613    0.91707    0.59985    1.000
    H4       H        0.66700    0.88190    0.57790    1.000
    C11      C        0.66604    0.96685    0.63201    1.000
    H5       H        0.63350    0.96450    0.63210    1.000
    C12      C        0.62445    0.09609    0.66542    1.000
    H6       H        0.60730    0.07610    0.62090    1.000
    C13      C        0.60254    0.14633    0.69674    1.000
    C14      C        0.62915    0.17592    0.76357    1.000
    H7       H        0.61510    0.20860    0.78680    1.000
    C15      C        0.51850    0.12770    0.61460    1.000
    H8       H        0.52630    0.08410    0.60850    1.000
    C16      C        0.47347    0.15190    0.58030    1.000
    H9       H        0.45060    0.12340    0.55210    1.000
    C17      C        0.49460    0.25850    0.62750    1.000
    H10      H        0.48690    0.30250    0.63120    1.000
    C18      C        0.54140    0.23560    0.66490    1.000
    H11      H        0.56420    0.26430    0.69290    1.000
    C19      C        0.46075    0.21642    0.58604    1.000
    C20      C        0.55274    0.17095    0.65937    1.000
    C21      C        0.41090    0.24210    0.54705    1.000
    C22      C        0.53080    0.15980    0.58080    1.000
    H12      H        0.54770    0.13480    0.55290    1.000
    C23      C        0.48840    0.18270    0.54550    1.000
    H13      H        0.47690    0.17630    0.49340    1.000
    C24      C        0.48420    0.23900    0.65630    1.000
    H14      H        0.46970    0.27060    0.68050    1.000
    C25      C        0.52840    0.21540    0.69070    1.000
    H15      H        0.54310    0.23090    0.73920    1.000
    Gd2      Gd       0.18541    0.77991    0.01658    1.000
    O7       O        0.18168    0.73080    0.89714    1.000
    O8       O        0.24816    0.67516    0.89149    1.000
    O9       O        0.29984    0.37249    0.55612    1.000
    O10      O        0.23457    0.31241    0.54326    1.000
    O11      O        0.88347    0.70519    0.50087    1.000
    O12      O        0.89829    0.79685    0.56118    1.000
    C26      C        0.20445    0.69050    0.86814    1.000
    C27      C        0.17643    0.65663    0.79536    1.000
    C28      C        0.19700    0.60703    0.76388    1.000
    H16      H        0.22860    0.59450    0.78620    1.000
    C29      C        0.17127    0.57479    0.69858    1.000
    C30      C        0.19254    0.52041    0.66434    1.000
    C31      C        0.24216    0.52148    0.66427    1.000
    H17      H        0.26120    0.55670    0.68630    1.000
    C32      C        0.26255    0.47164    0.63235    1.000
    H18      H        0.29520    0.47360    0.63270    1.000
    C33      C        0.23506    0.41807    0.59933    1.000
    C34      C        0.25790    0.36421    0.56428    1.000
    C35      C        0.18613    0.41707    0.59985    1.000
    H19      H        0.16700    0.38190    0.57790    1.000
    C36      C        0.16604    0.46685    0.63201    1.000
    H20      H        0.13350    0.46450    0.63210    1.000
    C37      C        0.12445    0.59609    0.66542    1.000
    H21      H        0.10730    0.57610    0.62090    1.000
    C38      C        0.10254    0.64633    0.69674    1.000
    C39      C        0.12915    0.67592    0.76357    1.000
    H22      H        0.11510    0.70860    0.78680    1.000
    C40      C        0.01850    0.62770    0.61460    1.000
    H23      H        0.02630    0.58410    0.60850    1.000
    C41      C        0.97347    0.65190    0.58030    1.000
    H24      H        0.95060    0.62340    0.55210    1.000
    C42      C        0.99460    0.75850    0.62750    1.000
    H25      H        0.98690    0.80250    0.63120    1.000
    C43      C        0.04140    0.73560    0.66490    1.000
    H26      H        0.06420    0.76430    0.69290    1.000
    C44      C        0.96075    0.71642    0.58604    1.000
    C45      C        0.05274    0.67095    0.65937    1.000
    C46      C        0.91090    0.74210    0.54705    1.000
    C47      C        0.03080    0.65980    0.58080    1.000
    H27      H        0.04770    0.63480    0.55290    1.000
    C48      C        0.98840    0.68270    0.54550    1.000
    H28      H        0.97690    0.67630    0.49340    1.000
    C49      C        0.98420    0.73900    0.65630    1.000
    H29      H        0.96970    0.77060    0.68050    1.000
    C50      C        0.02840    0.71540    0.69070    1.000
    H30      H        0.04310    0.73090    0.73920    1.000
    Gd3      Gd       0.31459    0.27991    0.48342    1.000
    O13      O        0.31832    0.23080    0.60286    1.000
    O14      O        0.25184    0.17516    0.60851    1.000
    O15      O        0.20016    0.87249    0.94388    1.000
    O16      O        0.26543    0.81241    0.95674    1.000
    O17      O        0.61653    0.20519    0.99913    1.000
    O18      O        0.60171    0.29685    0.93882    1.000
    C51      C        0.29555    0.19050    0.63186    1.000
    C52      C        0.32357    0.15663    0.70464    1.000
    C53      C        0.30300    0.10703    0.73612    1.000
    H31      H        0.27140    0.09450    0.71380    1.000
    C54      C        0.32873    0.07479    0.80142    1.000
    C55      C        0.30746    0.02041    0.83566    1.000
    C56      C        0.25784    0.02148    0.83573    1.000
    H32      H        0.23880    0.05670    0.81370    1.000
    C57      C        0.23745    0.97164    0.86765    1.000
    H33      H        0.20480    0.97360    0.86730    1.000
    C58      C        0.26494    0.91807    0.90067    1.000
    C59      C        0.24210    0.86421    0.93572    1.000
    C60      C        0.31387    0.91707    0.90015    1.000
    H34      H        0.33300    0.88190    0.92210    1.000
    C61      C        0.33396    0.96685    0.86799    1.000
    H35      H        0.36650    0.96450    0.86790    1.000
    C62      C        0.37555    0.09609    0.83458    1.000
    H36      H        0.39270    0.07610    0.87910    1.000
    C63      C        0.39746    0.14633    0.80326    1.000
    C64      C        0.37085    0.17592    0.73643    1.000
    H37      H        0.38490    0.20860    0.71320    1.000
    C65      C        0.48150    0.12770    0.88540    1.000
    H38      H        0.47370    0.08410    0.89150    1.000
    C66      C        0.52653    0.15190    0.91970    1.000
    H39      H        0.54940    0.12340    0.94790    1.000
    C67      C        0.50540    0.25850    0.87250    1.000
    H40      H        0.51310    0.30250    0.86880    1.000
    C68      C        0.45860    0.23560    0.83510    1.000
    H41      H        0.43580    0.26430    0.80710    1.000
    C69      C        0.53925    0.21642    0.91396    1.000
    C70      C        0.44726    0.17095    0.84063    1.000
    C71      C        0.58910    0.24210    0.95295    1.000
    C72      C        0.46920    0.15980    0.91920    1.000
    H42      H        0.45230    0.13480    0.94710    1.000
    C73      C        0.51160    0.18270    0.95450    1.000
    H43      H        0.52310    0.17630    0.00660    1.000
    C74      C        0.51580    0.23900    0.84370    1.000
    H44      H        0.53030    0.27060    0.81950    1.000
    C75      C        0.47160    0.21540    0.80930    1.000
    H45      H        0.45690    0.23090    0.76080    1.000
    Gd4      Gd       0.81459    0.77991    0.48342    1.000
    O19      O        0.81832    0.73080    0.60286    1.000
    O20      O        0.75184    0.67516    0.60851    1.000
    O21      O        0.70016    0.37249    0.94388    1.000
    O22      O        0.76543    0.31241    0.95674    1.000
    O23      O        0.11653    0.70519    0.99913    1.000
    O24      O        0.10171    0.79685    0.93882    1.000
    C76      C        0.79555    0.69050    0.63186    1.000
    C77      C        0.82357    0.65663    0.70464    1.000
    C78      C        0.80300    0.60703    0.73612    1.000
    H46      H        0.77140    0.59450    0.71380    1.000
    C79      C        0.82873    0.57479    0.80142    1.000
    C80      C        0.80746    0.52041    0.83566    1.000
    C81      C        0.75784    0.52148    0.83573    1.000
    H47      H        0.73880    0.55670    0.81370    1.000
    C82      C        0.73745    0.47164    0.86765    1.000
    H48      H        0.70480    0.47360    0.86730    1.000
    C83      C        0.76494    0.41807    0.90067    1.000
    C84      C        0.74210    0.36421    0.93572    1.000
    C85      C        0.81387    0.41707    0.90015    1.000
    H49      H        0.83300    0.38190    0.92210    1.000
    C86      C        0.83396    0.46685    0.86799    1.000
    H50      H        0.86650    0.46450    0.86790    1.000
    C87      C        0.87555    0.59609    0.83458    1.000
    H51      H        0.89270    0.57610    0.87910    1.000
    C88      C        0.89746    0.64633    0.80326    1.000
    C89      C        0.87085    0.67592    0.73643    1.000
    H52      H        0.88490    0.70860    0.71320    1.000
    C90      C        0.98150    0.62770    0.88540    1.000
    H53      H        0.97370    0.58410    0.89150    1.000
    C91      C        0.02653    0.65190    0.91970    1.000
    H54      H        0.04940    0.62340    0.94790    1.000
    C92      C        0.00540    0.75850    0.87250    1.000
    H55      H        0.01310    0.80250    0.86880    1.000
    C93      C        0.95860    0.73560    0.83510    1.000
    H56      H        0.93580    0.76430    0.80710    1.000
    C94      C        0.03925    0.71642    0.91396    1.000
    C95      C        0.94726    0.67095    0.84063    1.000
    C96      C        0.08910    0.74210    0.95295    1.000
    C97      C        0.96920    0.65980    0.91920    1.000
    H57      H        0.95230    0.63480    0.94710    1.000
    C98      C        0.01160    0.68270    0.95450    1.000
    H58      H        0.02310    0.67630    0.00660    1.000
    C99      C        0.01580    0.73900    0.84370    1.000
    H59      H        0.03030    0.77060    0.81950    1.000
    C100     C        0.97160    0.71540    0.80930    1.000
    H60      H        0.95690    0.73090    0.76080    1.000
    Gd5      Gd       0.31459    0.72009    0.98342    1.000
    O25      O        0.31832    0.76920    0.10286    1.000
    O26      O        0.25184    0.82484    0.10851    1.000
    O27      O        0.20016    0.12751    0.44388    1.000
    O28      O        0.26543    0.18759    0.45674    1.000
    O29      O        0.61653    0.79481    0.49913    1.000
    O30      O        0.60171    0.70315    0.43882    1.000
    C101     C        0.29555    0.80950    0.13186    1.000
    C102     C        0.32357    0.84337    0.20464    1.000
    C103     C        0.30300    0.89297    0.23612    1.000
    H61      H        0.27140    0.90550    0.21380    1.000
    C104     C        0.32873    0.92521    0.30142    1.000
    C105     C        0.30746    0.97959    0.33566    1.000
    C106     C        0.25784    0.97852    0.33573    1.000
    H62      H        0.23880    0.94330    0.31370    1.000
    C107     C        0.23745    0.02836    0.36765    1.000
    H63      H        0.20480    0.02640    0.36730    1.000
    C108     C        0.26494    0.08193    0.40067    1.000
    C109     C        0.24210    0.13579    0.43572    1.000
    C110     C        0.31387    0.08293    0.40015    1.000
    H64      H        0.33300    0.11810    0.42210    1.000
    C111     C        0.33396    0.03315    0.36799    1.000
    H65      H        0.36650    0.03550    0.36790    1.000
    C112     C        0.37555    0.90391    0.33458    1.000
    H66      H        0.39270    0.92390    0.37910    1.000
    C113     C        0.39746    0.85367    0.30326    1.000
    C114     C        0.37085    0.82408    0.23643    1.000
    H67      H        0.38490    0.79140    0.21320    1.000
    C115     C        0.48150    0.87230    0.38540    1.000
    H68      H        0.47370    0.91590    0.39150    1.000
    C116     C        0.52653    0.84810    0.41970    1.000
    H69      H        0.54940    0.87660    0.44790    1.000
    C117     C        0.50540    0.74150    0.37250    1.000
    H70      H        0.51310    0.69750    0.36880    1.000
    C118     C        0.45860    0.76440    0.33510    1.000
    H71      H        0.43580    0.73570    0.30710    1.000
    C119     C        0.53925    0.78358    0.41396    1.000
    C120     C        0.44726    0.82905    0.34063    1.000
    C121     C        0.58910    0.75790    0.45295    1.000
    C122     C        0.46920    0.84020    0.41920    1.000
    H72      H        0.45230    0.86520    0.44710    1.000
    C123     C        0.51160    0.81730    0.45450    1.000
    H73      H        0.52310    0.82370    0.50660    1.000
    C124     C        0.51580    0.76100    0.34370    1.000
    H74      H        0.53030    0.72940    0.31950    1.000
    C125     C        0.47160    0.78460    0.30930    1.000
    H75      H        0.45690    0.76910    0.26080    1.000
    Gd6      Gd       0.81459    0.22009    0.98342    1.000
    O31      O        0.81832    0.26920    0.10286    1.000
    O32      O        0.75184    0.32484    0.10851    1.000
    O33      O        0.70016    0.62751    0.44388    1.000
    O34      O        0.76543    0.68759    0.45674    1.000
    O35      O        0.11653    0.29481    0.49913    1.000
    O36      O        0.10171    0.20315    0.43882    1.000
    C126     C        0.79555    0.30950    0.13186    1.000
    C127     C        0.82357    0.34337    0.20464    1.000
    C128     C        0.80300    0.39297    0.23612    1.000
    H76      H        0.77140    0.40550    0.21380    1.000
    C129     C        0.82873    0.42521    0.30142    1.000
    C130     C        0.80746    0.47959    0.33566    1.000
    C131     C        0.75784    0.47852    0.33573    1.000
    H77      H        0.73880    0.44330    0.31370    1.000
    C132     C        0.73745    0.52836    0.36765    1.000
    H78      H        0.70480    0.52640    0.36730    1.000
    C133     C        0.76494    0.58193    0.40067    1.000
    C134     C        0.74210    0.63579    0.43572    1.000
    C135     C        0.81387    0.58293    0.40015    1.000
    H79      H        0.83300    0.61810    0.42210    1.000
    C136     C        0.83396    0.53315    0.36799    1.000
    H80      H        0.86650    0.53550    0.36790    1.000
    C137     C        0.87555    0.40391    0.33458    1.000
    H81      H        0.89270    0.42390    0.37910    1.000
    C138     C        0.89746    0.35367    0.30326    1.000
    C139     C        0.87085    0.32408    0.23643    1.000
    H82      H        0.88490    0.29140    0.21320    1.000
    C140     C        0.98150    0.37230    0.38540    1.000
    H83      H        0.97370    0.41590    0.39150    1.000
    C141     C        0.02653    0.34810    0.41970    1.000
    H84      H        0.04940    0.37660    0.44790    1.000
    C142     C        0.00540    0.24150    0.37250    1.000
    H85      H        0.01310    0.19750    0.36880    1.000
    C143     C        0.95860    0.26440    0.33510    1.000
    H86      H        0.93580    0.23570    0.30710    1.000
    C144     C        0.03925    0.28358    0.41396    1.000
    C145     C        0.94726    0.32905    0.34063    1.000
    C146     C        0.08910    0.25790    0.45295    1.000
    C147     C        0.96920    0.34020    0.41920    1.000
    H87      H        0.95230    0.36520    0.44710    1.000
    C148     C        0.01160    0.31730    0.45450    1.000
    H88      H        0.02310    0.32370    0.50660    1.000
    C149     C        0.01580    0.26100    0.34370    1.000
    H89      H        0.03030    0.22940    0.31950    1.000
    C150     C        0.97160    0.28460    0.30930    1.000
    H90      H        0.95690    0.26910    0.26080    1.000
    Gd7      Gd       0.68541    0.72009    0.51658    1.000
    O37      O        0.68168    0.76920    0.39714    1.000
    O38      O        0.74816    0.82484    0.39149    1.000
    O39      O        0.79984    0.12751    0.05612    1.000
    O40      O        0.73457    0.18759    0.04326    1.000
    O41      O        0.38347    0.79481    0.00087    1.000
    O42      O        0.39829    0.70315    0.06118    1.000
    C151     C        0.70445    0.80950    0.36814    1.000
    C152     C        0.67643    0.84337    0.29536    1.000
    C153     C        0.69700    0.89297    0.26388    1.000
    H91      H        0.72860    0.90550    0.28620    1.000
    C154     C        0.67127    0.92521    0.19858    1.000
    C155     C        0.69254    0.97959    0.16434    1.000
    C156     C        0.74216    0.97852    0.16427    1.000
    H92      H        0.76120    0.94330    0.18630    1.000
    C157     C        0.76255    0.02836    0.13235    1.000
    H93      H        0.79520    0.02640    0.13270    1.000
    C158     C        0.73506    0.08193    0.09933    1.000
    C159     C        0.75790    0.13579    0.06428    1.000
    C160     C        0.68613    0.08293    0.09985    1.000
    H94      H        0.66700    0.11810    0.07790    1.000
    C161     C        0.66604    0.03315    0.13201    1.000
    H95      H        0.63350    0.03550    0.13210    1.000
    C162     C        0.62445    0.90391    0.16542    1.000
    H96      H        0.60730    0.92390    0.12090    1.000
    C163     C        0.60254    0.85367    0.19674    1.000
    C164     C        0.62915    0.82408    0.26357    1.000
    H97      H        0.61510    0.79140    0.28680    1.000
    C165     C        0.51850    0.87230    0.11460    1.000
    H98      H        0.52630    0.91590    0.10850    1.000
    C166     C        0.47347    0.84810    0.08030    1.000
    H99      H        0.45060    0.87660    0.05210    1.000
    C167     C        0.49460    0.74150    0.12750    1.000
    H100     H        0.48690    0.69750    0.13120    1.000
    C168     C        0.54140    0.76440    0.16490    1.000
    H101     H        0.56420    0.73570    0.19290    1.000
    C169     C        0.46075    0.78358    0.08604    1.000
    C170     C        0.55274    0.82905    0.15937    1.000
    C171     C        0.41090    0.75790    0.04705    1.000
    C172     C        0.53080    0.84020    0.08080    1.000
    H102     H        0.54770    0.86520    0.05290    1.000
    C173     C        0.48840    0.81730    0.04550    1.000
    H103     H        0.47690    0.82370    0.99340    1.000
    C174     C        0.48420    0.76100    0.15630    1.000
    H104     H        0.46970    0.72940    0.18050    1.000
    C175     C        0.52840    0.78460    0.19070    1.000
    H105     H        0.54310    0.76910    0.23920    1.000
    Gd8      Gd       0.18541    0.22009    0.51658    1.000
    O43      O        0.18168    0.26920    0.39714    1.000
    O44      O        0.24816    0.32484    0.39149    1.000
    O45      O        0.29984    0.62751    0.05612    1.000
    O46      O        0.23457    0.68759    0.04326    1.000
    O47      O        0.88347    0.29481    0.00087    1.000
    O48      O        0.89829    0.20315    0.06118    1.000
    C176     C        0.20445    0.30950    0.36814    1.000
    C177     C        0.17643    0.34337    0.29536    1.000
    C178     C        0.19700    0.39297    0.26388    1.000
    H106     H        0.22860    0.40550    0.28620    1.000
    C179     C        0.17127    0.42521    0.19858    1.000
    C180     C        0.19254    0.47959    0.16434    1.000
    C181     C        0.24216    0.47852    0.16427    1.000
    H107     H        0.26120    0.44330    0.18630    1.000
    C182     C        0.26255    0.52836    0.13235    1.000
    H108     H        0.29520    0.52640    0.13270    1.000
    C183     C        0.23506    0.58193    0.09933    1.000
    C184     C        0.25790    0.63579    0.06428    1.000
    C185     C        0.18613    0.58293    0.09985    1.000
    H109     H        0.16700    0.61810    0.07790    1.000
    C186     C        0.16604    0.53315    0.13201    1.000
    H110     H        0.13350    0.53550    0.13210    1.000
    C187     C        0.12445    0.40391    0.16542    1.000
    H111     H        0.10730    0.42390    0.12090    1.000
    C188     C        0.10254    0.35367    0.19674    1.000
    C189     C        0.12915    0.32408    0.26357    1.000
    H112     H        0.11510    0.29140    0.28680    1.000
    C190     C        0.01850    0.37230    0.11460    1.000
    H113     H        0.02630    0.41590    0.10850    1.000
    C191     C        0.97347    0.34810    0.08030    1.000
    H114     H        0.95060    0.37660    0.05210    1.000
    C192     C        0.99460    0.24150    0.12750    1.000
    H115     H        0.98690    0.19750    0.13120    1.000
    C193     C        0.04140    0.26440    0.16490    1.000
    H116     H        0.06420    0.23570    0.19290    1.000
    C194     C        0.96075    0.28358    0.08604    1.000
    C195     C        0.05274    0.32905    0.15937    1.000
    C196     C        0.91090    0.25790    0.04705    1.000
    C197     C        0.03080    0.34020    0.08080    1.000
    H117     H        0.04770    0.36520    0.05290    1.000
    C198     C        0.98840    0.31730    0.04550    1.000
    H118     H        0.97690    0.32370    0.99340    1.000
    C199     C        0.98420    0.26100    0.15630    1.000
    H119     H        0.96970    0.22940    0.18050    1.000
    C200     C        0.02840    0.28460    0.19070    1.000
    H120     H        0.04310    0.26910    0.23920    1.000
