# CIF file generated by openbabel 3.1.0, see https://openbabel.org
data_I
_chemical_name_common 'image0'
_cell_length_a 8.7
_cell_length_b 11.4517
_cell_length_c 23.0491
_cell_angle_alpha 90
_cell_angle_beta 90
_cell_angle_gamma 90
_space_group_name_H-M_alt 'P 1'
_space_group_name_Hall 'P 1'
loop_
    _symmetry_equiv_pos_as_xyz
    x,y,z
loop_
    _atom_site_label
    _atom_site_type_symbol
    _atom_site_fract_x
    _atom_site_fract_y
    _atom_site_fract_z
    _atom_site_occupancy
    Zn1      Zn       0.15229    0.82596    0.72796    1.000
    Zn2      Zn       0.63304    0.79067    0.65885    1.000
    N1       N        0.14640    0.95300    0.66740    1.000
    N2       N        0.12840    0.55570    0.39110    1.000
    O1       O        0.56670    0.60140    0.68010    1.000
    O2       O        0.47830    0.69600    0.60630    1.000
    O3       O        0.16960    0.65840    0.71590    1.000
    O4       O        0.10440    0.66510    0.62370    1.000
    O5       O        0.69150    0.34670    0.70980    1.000
    O6       O        0.53710    0.35090    0.78500    1.000
    O7       O        0.18290    0.31480    0.78800    1.000
    O8       O        0.02310    0.37870    0.72300    1.000
    C1       C        0.45280    0.38750    0.62690    1.000
    H1       H        0.56290    0.39510    0.62140    1.000
    H2       H        0.41430    0.32930    0.60000    1.000
    C2       C        0.37430    0.50300    0.61690    1.000
    H3       H        0.34470    0.51210    0.57620    1.000
    C3       C        0.23210    0.49650    0.65620    1.000
    H4       H        0.15480    0.44850    0.63660    1.000
    C4       C        0.28560    0.43010    0.71080    1.000
    H5       H        0.33020    0.48770    0.73740    1.000
    C5       C        0.41680    0.35140    0.69000    1.000
    H6       H        0.37780    0.27110    0.68900    1.000
    C6       C        0.48430    0.60410    0.63660    1.000
    C7       C        0.16480    0.61610    0.66520    1.000
    C8       C        0.15680    0.37090    0.74250    1.000
    C9       C        0.55740    0.35300    0.72980    1.000
    C10      C        0.18440    0.93840    0.61290    1.000
    H7       H        0.22070    0.86550    0.60160    1.000
    C11      C        0.17390    0.02610    0.57030    1.000
    H8       H        0.20260    0.01140    0.53210    1.000
    C12      C        0.12020    0.13390    0.58670    1.000
    C13      C        0.07960    0.15180    0.64330    1.000
    H9       H        0.04270    0.22400    0.65540    1.000
    C14      C        0.09440    0.06000    0.68260    1.000
    H10      H        0.06730    0.07290    0.72110    1.000
    C15      C        0.09760    0.23990    0.54640    1.000
    H11      H        0.03970    0.30230    0.56020    1.000
    C16      C        0.15140    0.24690    0.49750    1.000
    H12      H        0.20420    0.18320    0.48240    1.000
    C17      C        0.13550    0.35260    0.46160    1.000
    C18      C        0.19580    0.35130    0.40600    1.000
    H13      H        0.24240    0.28440    0.39140    1.000
    C19      C        0.18550    0.45100    0.37240    1.000
    H14      H        0.22010    0.44660    0.33430    1.000
    C20      C        0.07230    0.55380    0.44690    1.000
    H15      H        0.02910    0.62240    0.46100    1.000
    C21      C        0.07470    0.45750    0.48400    1.000
    H16      H        0.03780    0.46220    0.52180    1.000
    Zn3      Zn       0.34771    0.17404    0.22796    1.000
    Zn4      Zn       0.86696    0.20933    0.15885    1.000
    N3       N        0.35360    0.04700    0.16740    1.000
    N4       N        0.37160    0.44430    0.89110    1.000
    O9       O        0.93330    0.39860    0.18010    1.000
    O10      O        0.02170    0.30400    0.10630    1.000
    O11      O        0.33040    0.34160    0.21590    1.000
    O12      O        0.39560    0.33490    0.12370    1.000
    O13      O        0.80850    0.65330    0.20980    1.000
    O14      O        0.96290    0.64910    0.28500    1.000
    O15      O        0.31710    0.68520    0.28800    1.000
    O16      O        0.47690    0.62130    0.22300    1.000
    C22      C        0.04720    0.61250    0.12690    1.000
    H17      H        0.93710    0.60490    0.12140    1.000
    H18      H        0.08570    0.67070    0.10000    1.000
    C23      C        0.12570    0.49700    0.11690    1.000
    H19      H        0.15530    0.48790    0.07620    1.000
    C24      C        0.26790    0.50350    0.15620    1.000
    H20      H        0.34520    0.55150    0.13660    1.000
    C25      C        0.21440    0.56990    0.21080    1.000
    H21      H        0.16980    0.51230    0.23740    1.000
    C26      C        0.08320    0.64860    0.19000    1.000
    H22      H        0.12220    0.72890    0.18900    1.000
    C27      C        0.01570    0.39590    0.13660    1.000
    C28      C        0.33520    0.38390    0.16520    1.000
    C29      C        0.34320    0.62910    0.24250    1.000
    C30      C        0.94260    0.64700    0.22980    1.000
    C31      C        0.31560    0.06160    0.11290    1.000
    H23      H        0.27930    0.13450    0.10160    1.000
    C32      C        0.32610    0.97390    0.07030    1.000
    H24      H        0.29740    0.98860    0.03210    1.000
    C33      C        0.37980    0.86610    0.08670    1.000
    C34      C        0.42040    0.84820    0.14330    1.000
    H25      H        0.45730    0.77600    0.15540    1.000
    C35      C        0.40560    0.94000    0.18260    1.000
    H26      H        0.43270    0.92710    0.22110    1.000
    C36      C        0.40240    0.76010    0.04640    1.000
    H27      H        0.46030    0.69770    0.06020    1.000
    C37      C        0.34860    0.75310    0.99750    1.000
    H28      H        0.29580    0.81680    0.98240    1.000
    C38      C        0.36450    0.64740    0.96160    1.000
    C39      C        0.30420    0.64870    0.90600    1.000
    H29      H        0.25760    0.71560    0.89140    1.000
    C40      C        0.31450    0.54900    0.87240    1.000
    H30      H        0.27990    0.55340    0.83430    1.000
    C41      C        0.42770    0.44620    0.94690    1.000
    H31      H        0.47090    0.37760    0.96100    1.000
    C42      C        0.42530    0.54250    0.98400    1.000
    H32      H        0.46220    0.53780    0.02180    1.000
    Zn5      Zn       0.84771    0.32596    0.77204    1.000
    Zn6      Zn       0.36696    0.29067    0.84115    1.000
    N5       N        0.85360    0.45300    0.83260    1.000
    N6       N        0.87160    0.05570    0.10890    1.000
    O17      O        0.43330    0.10140    0.81990    1.000
    O18      O        0.52170    0.19600    0.89370    1.000
    O19      O        0.83040    0.15840    0.78410    1.000
    O20      O        0.89560    0.16510    0.87630    1.000
    O21      O        0.30850    0.84670    0.79020    1.000
    O22      O        0.46290    0.85090    0.71500    1.000
    O23      O        0.81710    0.81480    0.71200    1.000
    O24      O        0.97690    0.87870    0.77700    1.000
    C43      C        0.54720    0.88750    0.87310    1.000
    H33      H        0.43710    0.89510    0.87860    1.000
    H34      H        0.58570    0.82930    0.90000    1.000
    C44      C        0.62570    0.00300    0.88310    1.000
    H35      H        0.65530    0.01210    0.92380    1.000
    C45      C        0.76790    0.99650    0.84380    1.000
    H36      H        0.84520    0.94850    0.86340    1.000
    C46      C        0.71440    0.93010    0.78920    1.000
    H37      H        0.66980    0.98770    0.76260    1.000
    C47      C        0.58320    0.85140    0.81000    1.000
    H38      H        0.62220    0.77110    0.81100    1.000
    C48      C        0.51570    0.10410    0.86340    1.000
    C49      C        0.83520    0.11610    0.83480    1.000
    C50      C        0.84320    0.87090    0.75750    1.000
    C51      C        0.44260    0.85300    0.77020    1.000
    C52      C        0.81560    0.43840    0.88710    1.000
    H39      H        0.77930    0.36550    0.89840    1.000
    C53      C        0.82610    0.52610    0.92970    1.000
    H40      H        0.79740    0.51140    0.96790    1.000
    C54      C        0.87980    0.63390    0.91330    1.000
    C55      C        0.92040    0.65180    0.85670    1.000
    H41      H        0.95730    0.72400    0.84460    1.000
    C56      C        0.90560    0.56000    0.81740    1.000
    H42      H        0.93270    0.57290    0.77890    1.000
    C57      C        0.90240    0.73990    0.95360    1.000
    H43      H        0.96030    0.80230    0.93980    1.000
    C58      C        0.84860    0.74690    0.00250    1.000
    H44      H        0.79580    0.68320    0.01760    1.000
    C59      C        0.86450    0.85260    0.03840    1.000
    C60      C        0.80420    0.85130    0.09400    1.000
    H45      H        0.75760    0.78440    0.10860    1.000
    C61      C        0.81450    0.95100    0.12760    1.000
    H46      H        0.77990    0.94660    0.16570    1.000
    C62      C        0.92770    0.05380    0.05310    1.000
    H47      H        0.97090    0.12240    0.03900    1.000
    C63      C        0.92530    0.95750    0.01600    1.000
    H48      H        0.96220    0.96220    0.97820    1.000
    Zn7      Zn       0.65229    0.67404    0.27204    1.000
    Zn8      Zn       0.13304    0.70933    0.34115    1.000
    N7       N        0.64640    0.54700    0.33260    1.000
    N8       N        0.62840    0.94430    0.60890    1.000
    O25      O        0.06670    0.89860    0.31990    1.000
    O26      O        0.97830    0.80400    0.39370    1.000
    O27      O        0.66960    0.84160    0.28410    1.000
    O28      O        0.60440    0.83490    0.37630    1.000
    O29      O        0.19150    0.15330    0.29020    1.000
    O30      O        0.03710    0.14910    0.21500    1.000
    O31      O        0.68290    0.18520    0.21200    1.000
    O32      O        0.52310    0.12130    0.27700    1.000
    C64      C        0.95280    0.11250    0.37310    1.000
    H49      H        0.06290    0.10490    0.37860    1.000
    H50      H        0.91430    0.17070    0.40000    1.000
    C65      C        0.87430    0.99700    0.38310    1.000
    H51      H        0.84470    0.98790    0.42380    1.000
    C66      C        0.73210    0.00350    0.34380    1.000
    H52      H        0.65480    0.05150    0.36340    1.000
    C67      C        0.78560    0.06990    0.28920    1.000
    H53      H        0.83020    0.01230    0.26260    1.000
    C68      C        0.91680    0.14860    0.31000    1.000
    H54      H        0.87780    0.22890    0.31100    1.000
    C69      C        0.98430    0.89590    0.36340    1.000
    C70      C        0.66480    0.88390    0.33480    1.000
    C71      C        0.65680    0.12910    0.25750    1.000
    C72      C        0.05740    0.14700    0.27020    1.000
    C73      C        0.68440    0.56160    0.38710    1.000
    H55      H        0.72070    0.63450    0.39840    1.000
    C74      C        0.67390    0.47390    0.42970    1.000
    H56      H        0.70260    0.48860    0.46790    1.000
    C75      C        0.62020    0.36610    0.41330    1.000
    C76      C        0.57960    0.34820    0.35670    1.000
    H57      H        0.54270    0.27600    0.34460    1.000
    C77      C        0.59440    0.44000    0.31740    1.000
    H58      H        0.56730    0.42710    0.27890    1.000
    C78      C        0.59760    0.26010    0.45360    1.000
    H59      H        0.53970    0.19770    0.43980    1.000
    C79      C        0.65140    0.25310    0.50250    1.000
    H60      H        0.70420    0.31680    0.51760    1.000
    C80      C        0.63550    0.14740    0.53840    1.000
    C81      C        0.69580    0.14870    0.59400    1.000
    H61      H        0.74240    0.21560    0.60860    1.000
    C82      C        0.68550    0.04900    0.62760    1.000
    H62      H        0.72010    0.05340    0.66570    1.000
    C83      C        0.57230    0.94620    0.55310    1.000
    H63      H        0.52910    0.87760    0.53900    1.000
    C84      C        0.57470    0.04250    0.51600    1.000
    H64      H        0.53780    0.03780    0.47820    1.000
