# CIF file generated by openbabel 3.1.0, see https://openbabel.org
data_I
_chemical_name_common 'image0'
_cell_length_a 25.6125
_cell_length_b 25.6125
_cell_length_c 6.8036
_cell_angle_alpha 90
_cell_angle_beta 90
_cell_angle_gamma 120
_space_group_name_H-M_alt 'P 1'
_space_group_name_Hall 'P 1'
loop_
    _symmetry_equiv_pos_as_xyz
    x,y,z
loop_
    _atom_site_label
    _atom_site_type_symbol
    _atom_site_fract_x
    _atom_site_fract_y
    _atom_site_fract_z
    _atom_site_occupancy
    Fe1      Fe       0.38929    0.35113    0.15399    1.000
    O1       O        0.32300    0.29715    0.35550    1.000
    O2       O        0.30090    0.22839    0.59400    1.000
    O3       O        0.35534    0.27280    0.99890    1.000
    C1       C        0.31640    0.24670    0.41510    1.000
    C2       C        0.32600    0.20520    0.28810    1.000
    C3       C        0.34310    0.22020    0.09220    1.000
    C4       C        0.34920    0.17950    0.95650    1.000
    Fe2      Fe       0.05596    0.68446    0.48732    1.000
    O4       O        0.98967    0.63048    0.68883    1.000
    O5       O        0.96757    0.56172    0.92733    1.000
    O6       O        0.02201    0.60613    0.33223    1.000
    C5       C        0.98307    0.58003    0.74843    1.000
    C6       C        0.99267    0.53853    0.62143    1.000
    C7       C        0.00977    0.55353    0.42553    1.000
    C8       C        0.01587    0.51283    0.28983    1.000
    Fe3      Fe       0.72262    0.01780    0.82066    1.000
    O7       O        0.65633    0.96382    0.02217    1.000
    O8       O        0.63423    0.89506    0.26067    1.000
    O9       O        0.68867    0.93947    0.66557    1.000
    C9       C        0.64973    0.91337    0.08177    1.000
    C10      C        0.65933    0.87187    0.95477    1.000
    C11      C        0.67643    0.88687    0.75887    1.000
    C12      C        0.68253    0.84617    0.62317    1.000
    Fe4      Fe       0.64887    0.03816    0.15399    1.000
    O10      O        0.70285    0.02585    0.35550    1.000
    O11      O        0.77161    0.07251    0.59400    1.000
    O12      O        0.72720    0.08254    0.99890    1.000
    C13      C        0.75330    0.06970    0.41510    1.000
    C14      C        0.79480    0.12080    0.28810    1.000
    C15      C        0.77980    0.12290    0.09220    1.000
    C16      C        0.82050    0.16970    0.95650    1.000
    Fe5      Fe       0.31554    0.37149    0.48732    1.000
    O13      O        0.36952    0.35918    0.68883    1.000
    O14      O        0.43828    0.40584    0.92733    1.000
    O15      O        0.39387    0.41587    0.33223    1.000
    C17      C        0.41997    0.40303    0.74843    1.000
    C18      C        0.46147    0.45413    0.62143    1.000
    C19      C        0.44647    0.45623    0.42553    1.000
    C20      C        0.48717    0.50303    0.28983    1.000
    Fe6      Fe       0.98220    0.70483    0.82066    1.000
    O16      O        0.03618    0.69252    0.02217    1.000
    O17      O        0.10494    0.73918    0.26067    1.000
    O18      O        0.06053    0.74921    0.66557    1.000
    C21      C        0.08663    0.73637    0.08177    1.000
    C22      C        0.12813    0.78747    0.95477    1.000
    C23      C        0.11313    0.78957    0.75887    1.000
    C24      C        0.15383    0.83637    0.62317    1.000
    Fe7      Fe       0.96184    0.61071    0.15399    1.000
    O19      O        0.97415    0.67700    0.35550    1.000
    O20      O        0.92749    0.69910    0.59400    1.000
    O21      O        0.91746    0.64466    0.99890    1.000
    C25      C        0.93030    0.68360    0.41510    1.000
    C26      C        0.87920    0.67400    0.28810    1.000
    C27      C        0.87710    0.65690    0.09220    1.000
    C28      C        0.83030    0.65080    0.95650    1.000
    Fe8      Fe       0.62851    0.94404    0.48732    1.000
    O22      O        0.64082    0.01033    0.68883    1.000
    O23      O        0.59416    0.03243    0.92733    1.000
    O24      O        0.58413    0.97799    0.33223    1.000
    C29      C        0.59697    0.01693    0.74843    1.000
    C30      C        0.54587    0.00733    0.62143    1.000
    C31      C        0.54377    0.99023    0.42553    1.000
    C32      C        0.49697    0.98413    0.28983    1.000
    Fe9      Fe       0.29517    0.27738    0.82066    1.000
    O25      O        0.30748    0.34367    0.02217    1.000
    O26      O        0.26082    0.36577    0.26067    1.000
    O27      O        0.25079    0.31133    0.66557    1.000
    C33      C        0.26363    0.35027    0.08177    1.000
    C34      C        0.21253    0.34067    0.95477    1.000
    C35      C        0.21043    0.32357    0.75887    1.000
    C36      C        0.16363    0.31747    0.62317    1.000
    Fe10     Fe       0.61071    0.64887    0.84601    1.000
    O28      O        0.67700    0.70285    0.64450    1.000
    O29      O        0.69910    0.77161    0.40600    1.000
    O30      O        0.64466    0.72720    0.00110    1.000
    C37      C        0.68360    0.75330    0.58490    1.000
    C38      C        0.67400    0.79480    0.71190    1.000
    C39      C        0.65690    0.77980    0.90780    1.000
    C40      C        0.65080    0.82050    0.04350    1.000
    Fe11     Fe       0.27738    0.98220    0.17934    1.000
    O31      O        0.34367    0.03618    0.97783    1.000
    O32      O        0.36577    0.10494    0.73933    1.000
    O33      O        0.31133    0.06053    0.33443    1.000
    C41      C        0.35027    0.08663    0.91823    1.000
    C42      C        0.34067    0.12813    0.04523    1.000
    C43      C        0.32357    0.11313    0.24113    1.000
    C44      C        0.31747    0.15383    0.37683    1.000
    Fe12     Fe       0.94404    0.31554    0.51268    1.000
    O34      O        0.01033    0.36952    0.31117    1.000
    O35      O        0.03243    0.43828    0.07267    1.000
    O36      O        0.97799    0.39387    0.66777    1.000
    C45      C        0.01693    0.41997    0.25157    1.000
    C46      C        0.00733    0.46147    0.37857    1.000
    C47      C        0.99023    0.44647    0.57447    1.000
    C48      C        0.98413    0.48717    0.71017    1.000
    Fe13     Fe       0.35113    0.96184    0.84601    1.000
    O37      O        0.29715    0.97415    0.64450    1.000
    O38      O        0.22839    0.92749    0.40600    1.000
    O39      O        0.27280    0.91746    0.00110    1.000
    C49      C        0.24670    0.93030    0.58490    1.000
    C50      C        0.20520    0.87920    0.71190    1.000
    C51      C        0.22020    0.87710    0.90780    1.000
    C52      C        0.17950    0.83030    0.04350    1.000
    Fe14     Fe       0.01780    0.29517    0.17934    1.000
    O40      O        0.96382    0.30748    0.97783    1.000
    O41      O        0.89506    0.26082    0.73933    1.000
    O42      O        0.93947    0.25079    0.33443    1.000
    C53      C        0.91337    0.26363    0.91823    1.000
    C54      C        0.87187    0.21253    0.04523    1.000
    C55      C        0.88687    0.21043    0.24113    1.000
    C56      C        0.84617    0.16363    0.37683    1.000
    Fe15     Fe       0.68446    0.62851    0.51268    1.000
    O43      O        0.63048    0.64082    0.31117    1.000
    O44      O        0.56172    0.59416    0.07267    1.000
    O45      O        0.60613    0.58413    0.66777    1.000
    C57      C        0.58003    0.59697    0.25157    1.000
    C58      C        0.53853    0.54587    0.37857    1.000
    C59      C        0.55353    0.54377    0.57447    1.000
    C60      C        0.51283    0.49697    0.71017    1.000
    Fe16     Fe       0.03816    0.38929    0.84601    1.000
    O46      O        0.02585    0.32300    0.64450    1.000
    O47      O        0.07251    0.30090    0.40600    1.000
    O48      O        0.08254    0.35534    0.00110    1.000
    C61      C        0.06970    0.31640    0.58490    1.000
    C62      C        0.12080    0.32600    0.71190    1.000
    C63      C        0.12290    0.34310    0.90780    1.000
    C64      C        0.16970    0.34920    0.04350    1.000
    Fe17     Fe       0.70483    0.72262    0.17934    1.000
    O49      O        0.69252    0.65633    0.97783    1.000
    O50      O        0.73918    0.63423    0.73933    1.000
    O51      O        0.74921    0.68867    0.33443    1.000
    C65      C        0.73637    0.64973    0.91823    1.000
    C66      C        0.78747    0.65933    0.04523    1.000
    C67      C        0.78957    0.67643    0.24113    1.000
    C68      C        0.83637    0.68253    0.37683    1.000
    Fe18     Fe       0.37149    0.05596    0.51268    1.000
    O52      O        0.35918    0.98967    0.31117    1.000
    O53      O        0.40584    0.96757    0.07267    1.000
    O54      O        0.41587    0.02201    0.66777    1.000
    C69      C        0.40303    0.98307    0.25157    1.000
    C70      C        0.45413    0.99267    0.37857    1.000
    C71      C        0.45623    0.00977    0.57447    1.000
    C72      C        0.50303    0.01587    0.71017    1.000
