# CIF file generated by openbabel 3.1.0, see https://openbabel.org
data_I
_chemical_name_common 'image0'
_cell_length_a 10.0669
_cell_length_b 10.3562
_cell_length_c 10.538
_cell_angle_alpha 103.158
_cell_angle_beta 115.524
_cell_angle_gamma 92.546
_space_group_name_H-M_alt 'P 1'
_space_group_name_Hall 'P 1'
loop_
    _symmetry_equiv_pos_as_xyz
    x,y,z
loop_
    _atom_site_label
    _atom_site_type_symbol
    _atom_site_fract_x
    _atom_site_fract_y
    _atom_site_fract_z
    _atom_site_occupancy
    Lu1      Lu       0.47493    0.23375    0.00334    1.000
    O1       O        0.37240    0.40260    0.09800    1.000
    O2       O        0.67880    0.41230    0.13780    1.000
    O3       O        0.39420    0.08850    0.08640    1.000
    O4       O        0.22320    0.26140    0.89830    1.000
    C1       C        0.11630    0.43260    0.99960    1.000
    O5       O        0.33040    0.86320    0.00090    1.000
    C2       C        0.71740    0.37480    0.24810    1.000
    O6       O        0.63790    0.27550    0.25060    1.000
    O7       O        0.36190    0.05810    0.78560    1.000
    H1       H        0.31480    0.99320    0.81770    1.000
    H2       H        0.47050    0.05080    0.82410    1.000
    C3       C        0.29630    0.97760    0.03560    1.000
    C4       C        0.11790    0.10110    0.09080    1.000
    H3       H        0.19780    0.16960    0.15370    1.000
    C5       C        0.14340    0.99010    0.01690    1.000
    C6       C        0.96660    0.37420    0.90350    1.000
    C7       C        0.86380    0.44080    0.38100    1.000
    C8       C        0.14790    0.55850    0.08800    1.000
    H4       H        0.24660    0.60080    0.14360    1.000
    C9       C        0.02260    0.88160    0.92250    1.000
    C10      C        0.94750    0.54140    0.37230    1.000
    H5       H        0.91330    0.57080    0.28830    1.000
    C11      C        0.91270    0.39890    0.50750    1.000
    N1       N        0.03790    0.76580    0.84100    1.000
    H6       H        0.96110    0.70530    0.78280    1.000
    H7       H        0.12440    0.75330    0.84790    1.000
    N2       N        0.93000    0.23800    0.80200    1.000
    H8       H        0.83790    0.20040    0.74880    1.000
    H9       H        0.99970    0.19610    0.79650    1.000
    C12      C        0.23700    0.36040    0.99300    1.000
    N3       N        0.82550    0.29820    0.52320    1.000
    H10      H        0.73910    0.26080    0.45280    1.000
    H11      H        0.85890    0.27450    0.60310    1.000
    Lu2      Lu       0.52507    0.76625    0.99666    1.000
    O8       O        0.62760    0.59740    0.90200    1.000
    O9       O        0.32120    0.58770    0.86220    1.000
    O10      O        0.60580    0.91150    0.91360    1.000
    O11      O        0.77680    0.73860    0.10170    1.000
    C13      C        0.88370    0.56740    0.00040    1.000
    O12      O        0.66960    0.13680    0.99910    1.000
    C14      C        0.28260    0.62520    0.75190    1.000
    O13      O        0.36210    0.72450    0.74940    1.000
    O14      O        0.63810    0.94190    0.21440    1.000
    H12      H        0.68520    0.00680    0.18230    1.000
    H13      H        0.52950    0.94920    0.17590    1.000
    C15      C        0.70370    0.02240    0.96440    1.000
    C16      C        0.88210    0.89890    0.90920    1.000
    H14      H        0.80220    0.83040    0.84630    1.000
    C17      C        0.85660    0.00990    0.98310    1.000
    C18      C        0.03340    0.62580    0.09650    1.000
    C19      C        0.13620    0.55920    0.61900    1.000
    C20      C        0.85210    0.44150    0.91200    1.000
    H15      H        0.75340    0.39920    0.85640    1.000
    C21      C        0.97740    0.11840    0.07750    1.000
    C22      C        0.05250    0.45860    0.62770    1.000
    H16      H        0.08670    0.42920    0.71170    1.000
    C23      C        0.08730    0.60110    0.49250    1.000
    N4       N        0.96210    0.23420    0.15900    1.000
    H17      H        0.03890    0.29470    0.21720    1.000
    H18      H        0.87560    0.24670    0.15210    1.000
    N5       N        0.07000    0.76200    0.19800    1.000
    H19      H        0.16210    0.79960    0.25120    1.000
    H20      H        0.00030    0.80390    0.20350    1.000
    C24      C        0.76300    0.63960    0.00700    1.000
    N6       N        0.17450    0.70180    0.47680    1.000
    H21      H        0.26090    0.73920    0.54720    1.000
    H22      H        0.14110    0.72550    0.39690    1.000
