# CIF file generated by openbabel 3.1.0, see https://openbabel.org
data_I
_chemical_name_common 'YOCMAF_clean'
_cell_length_a 10.5684
_cell_length_b 10.5684
_cell_length_c 10.9267
_cell_angle_alpha 78.7836
_cell_angle_beta 62.4925
_cell_angle_gamma 108.745
_space_group_name_H-M_alt 'P 1'
_space_group_name_Hall 'P 1'
loop_
    _symmetry_equiv_pos_as_xyz
    x,y,z
loop_
    _atom_site_label
    _atom_site_type_symbol
    _atom_site_fract_x
    _atom_site_fract_y
    _atom_site_fract_z
    _atom_site_occupancy
    Dy1      Dy       0.24471    0.43131    0.62013    1.000
    Dy2      Dy       0.55144    0.86484    0.87987    1.000
    Dy3      Dy       0.75529    0.56869    0.37987    1.000
    Dy4      Dy       0.44856    0.13516    0.12013    1.000
    H1       H        0.96390    0.88630    0.81480    1.000
    H2       H        0.10480    0.98960    0.64640    1.000
    H3       H        0.73310    0.89080    0.21710    1.000
    H4       H        0.20110    0.77870    0.68520    1.000
    H5       H        0.13600    0.75120    0.85360    1.000
    H6       H        0.60790    0.95020    0.28290    1.000
    H7       H        0.03610    0.11370    0.18520    1.000
    H8       H        0.89520    0.01040    0.35360    1.000
    H9       H        0.26690    0.10920    0.78290    1.000
    H10      H        0.79890    0.22130    0.31480    1.000
    H11      H        0.86400    0.24880    0.14640    1.000
    H12      H        0.39210    0.04980    0.71710    1.000
    C1       C        0.95360    0.07230    0.74190    1.000
    C2       C        0.98920    0.94800    0.71980    1.000
    C3       C        0.90310    0.85030    0.66860    1.000
    C4       C        0.49900    0.72390    0.37570    1.000
    C5       C        0.31420    0.69550    0.75810    1.000
    C6       C        0.16780    0.70900    0.78020    1.000
    C7       C        0.01890    0.57170    0.83140    1.000
    C8       C        0.59960    0.87470    0.12430    1.000
    C9       C        0.04640    0.92770    0.25810    1.000
    C10      C        0.01080    0.05200    0.28020    1.000
    C11      C        0.09690    0.14970    0.33140    1.000
    C12      C        0.50100    0.27610    0.62430    1.000
    C13      C        0.68580    0.30450    0.24190    1.000
    C14      C        0.83220    0.29100    0.21980    1.000
    C15      C        0.98110    0.42830    0.16860    1.000
    C16      C        0.40040    0.12530    0.87570    1.000
    C17      C        0.62470    0.87470    0.25000    1.000
    C18      C        0.37530    0.12530    0.75000    1.000
    O1       O        0.06770    0.18430    0.71440    1.000
    O2       O        0.81380    0.05740    0.79180    1.000
    O3       O        0.98380    0.81270    0.57230    1.000
    O4       O        0.75397    0.80887    0.72590    1.000
    O5       O        0.35233    0.69157    0.44090    1.000
    O6       O        0.54210    0.63150    0.40820    1.000
    O7       O        0.39870    0.78210    0.78560    1.000
    O8       O        0.34920    0.60560    0.70820    1.000
    O9       O        0.88500    0.55610    0.92770    1.000
    O10      O        0.03477    0.47987    0.77410    1.000
    O11      O        0.63247    0.79323    0.05910    1.000
    O12      O        0.53970    0.95030    0.09180    1.000
    O13      O        0.93230    0.81570    0.28560    1.000
    O14      O        0.18620    0.94260    0.20820    1.000
    O15      O        0.01620    0.18730    0.42770    1.000
    O16      O        0.24603    0.19113    0.27410    1.000
    O17      O        0.64767    0.30843    0.55910    1.000
    O18      O        0.45790    0.36850    0.59180    1.000
    O19      O        0.60130    0.21790    0.21440    1.000
    O20      O        0.65080    0.39440    0.29180    1.000
    O21      O        0.11500    0.44390    0.07230    1.000
    O22      O        0.96523    0.52013    0.22590    1.000
    O23      O        0.36753    0.20677    0.94090    1.000
    O24      O        0.46030    0.04970    0.90820    1.000
