# CIF file generated by openbabel 3.1.0, see https://openbabel.org
data_I
_chemical_name_common 'image0'
_cell_length_a 10.5851
_cell_length_b 10.7883
_cell_length_c 12.8727
_cell_angle_alpha 73.878
_cell_angle_beta 67.677
_cell_angle_gamma 81.16
_space_group_name_H-M_alt 'P 1'
_space_group_name_Hall 'P 1'
loop_
    _symmetry_equiv_pos_as_xyz
    x,y,z
loop_
    _atom_site_label
    _atom_site_type_symbol
    _atom_site_fract_x
    _atom_site_fract_y
    _atom_site_fract_z
    _atom_site_occupancy
    Dy1      Dy       0.06145    0.03411    0.31558    1.000
    C1       C        0.96730    0.24210    0.49130    1.000
    C2       C        0.03700    0.25630    0.15220    1.000
    C3       C        0.75010    0.97980    0.54520    1.000
    C4       C        0.98470    0.37620    0.49290    1.000
    C5       C        0.01900    0.38250    0.07420    1.000
    C6       C        0.61980    0.98990    0.52390    1.000
    C7       C        0.06890    0.46200    0.39600    1.000
    C8       C        0.12820    0.46460    0.01190    1.000
    C9       C        0.49590    0.95490    0.61460    1.000
    C10      C        0.91680    0.41620    0.59540    1.000
    H1       H        0.86050    0.35970    0.65940    1.000
    C11      C        0.89180    0.41860    0.06170    1.000
    H2       H        0.81990    0.36410    0.10300    1.000
    C12      C        0.62200    0.03480    0.41060    1.000
    H3       H        0.70420    0.05840    0.35080    1.000
    N1       N        0.13860    0.43090    0.29271    1.000
    H4       H        0.18940    0.48620    0.23560    1.000
    H5       H        0.13190    0.35600    0.28450    1.000
    N2       N        0.25400    0.43510    0.01890    1.000
    H6       H        0.31820    0.48770    0.97870    1.000
    H7       H        0.26990    0.36370    0.06360    1.000
    N3       N        0.48590    0.91000    0.72661    1.000
    H8       H        0.40800    0.88890    0.77950    1.000
    H9       H        0.55740    0.90260    0.74480    1.000
    O1       O        0.02040    0.21249    0.39423    1.000
    O2       O        0.15340    0.22296    0.16249    1.000
    O3       O        0.86011    0.00018    0.46072    1.000
    O4       O        0.90070    0.16798    0.58451    1.000
    O5       O        0.93780    0.18387    0.20915    1.000
    O6       O        0.74330    0.95087    0.65014    1.000
    Dy2      Dy       0.93855    0.96589    0.68442    1.000
    C13      C        0.03270    0.75790    0.50870    1.000
    C14      C        0.96300    0.74370    0.84780    1.000
    C15      C        0.24990    0.02020    0.45480    1.000
    C16      C        0.01530    0.62380    0.50710    1.000
    C17      C        0.98100    0.61750    0.92580    1.000
    C18      C        0.38020    0.01010    0.47610    1.000
    C19      C        0.93110    0.53800    0.60400    1.000
    C20      C        0.87180    0.53540    0.98810    1.000
    C21      C        0.50410    0.04510    0.38540    1.000
    C22      C        0.08320    0.58380    0.40460    1.000
    H10      H        0.13950    0.64030    0.34060    1.000
    C23      C        0.10820    0.58140    0.93830    1.000
    H11      H        0.18010    0.63590    0.89700    1.000
    C24      C        0.37800    0.96520    0.58940    1.000
    H12      H        0.29580    0.94160    0.64920    1.000
    N4       N        0.86140    0.56910    0.70729    1.000
    H13      H        0.81060    0.51380    0.76440    1.000
    H14      H        0.86810    0.64400    0.71550    1.000
    N5       N        0.74600    0.56490    0.98110    1.000
    H15      H        0.68180    0.51230    0.02130    1.000
    H16      H        0.73010    0.63630    0.93640    1.000
    N6       N        0.51410    0.09000    0.27339    1.000
    H17      H        0.59200    0.11110    0.22050    1.000
    H18      H        0.44260    0.09740    0.25520    1.000
    O7       O        0.97960    0.78751    0.60577    1.000
    O8       O        0.84660    0.77704    0.83751    1.000
    O9       O        0.13989    0.99982    0.53928    1.000
    O10      O        0.09930    0.83202    0.41549    1.000
    O11      O        0.06220    0.81613    0.79085    1.000
    O12      O        0.25670    0.04913    0.34986    1.000
