# CIF file generated by openbabel 3.1.0, see https://openbabel.org
data_I
_chemical_name_common 'LETPOR01_ion_b'
_cell_length_a 37.232
_cell_length_b 37.232
_cell_length_c 37.232
_cell_angle_alpha 91.0381
_cell_angle_beta 91.0381
_cell_angle_gamma 164.529
_space_group_name_H-M_alt 'P 1'
_space_group_name_Hall 'P 1'
loop_
    _symmetry_equiv_pos_as_xyz
    x,y,z
loop_
    _atom_site_label
    _atom_site_type_symbol
    _atom_site_fract_x
    _atom_site_fract_y
    _atom_site_fract_z
    _atom_site_occupancy
    Zn1      Zn       0.45209    0.35673    0.97055    1.000
    Zn2      Zn       0.53832    0.28045    0.97509    1.000
    Zn3      Zn       0.74832    0.40949    0.01819    1.000
    P4       P        0.74133    0.31895    0.00748    1.000
    P5       P        0.57031    0.39328    0.95137    1.000
    P6       P        0.15330    0.10293    0.96071    1.000
    P7       P        0.78045    0.47183    0.94520    1.000
    P8       P        0.52887    0.24237    0.05031    1.000
    O9       O        0.80843    0.35477    0.03778    1.000
    O10      O        0.58366    0.16175    0.01484    1.000
    O11      O        0.77246    0.38499    0.03391    1.000
    O12      O        0.45896    0.31256    0.96704    1.000
    O13      O        0.66332    0.47862    0.99021    1.000
    O14      O        0.48564    0.27409    0.95413    1.000
    O15      O        0.28369    0.20801    0.94746    1.000
    O16      O        0.10162    0.01818    0.98076    1.000
    O17      O        0.05744    0.00345    0.92170    1.000
    O18      O        0.77122    0.42918    0.97142    1.000
    O19      O        0.72114    0.44437    0.97219    1.000
    O20      O        0.94228    0.63539    0.95874    1.000
    O21      O        0.51662    0.26359    0.02222    1.000
    O22      O        0.36666    0.07619    0.04416    1.000
    O23      O        0.87740    0.67505    0.96110    1.000
    O24      O        0.81068    0.67660    0.97070    1.000
    O25      O        0.57144    0.25346    0.02122    1.000
    N26      N        0.56306    0.48762    0.83340    1.000
    N27      N        0.40486    0.03316    0.07684    1.000
    C28      C        0.51807    0.40738    0.83768    1.000
    C29      C        0.41595    0.03469    0.11510    1.000
    C30      C        0.41342    0.06603    0.13911    1.000
    C31      C        0.59419    0.41649    0.84670    1.000
    C32      C        0.42724    0.06935    0.17918    1.000
    C33      C        0.64016    0.49968    0.84450    1.000
    C34      C        0.42322    0.09891    0.20358    1.000
    C35      C        0.44160    0.10654    0.24345    1.000
    H36      H        0.89053    0.66261    0.96919    1.000
    H37      H        0.90033    0.76950    0.96376    1.000
    H38      H        0.47831    0.42265    0.82889    1.000
    H39      H        0.61648    0.54045    0.81108    1.000
    H40      H        0.39543    0.00052    0.06111    1.000
    H41      H        0.49223    0.13099    0.07188    1.000
    H42      H        0.45067    0.33363    0.81279    1.000
    H43      H        0.45856    0.34906    0.86095    1.000
    H44      H        0.51288    0.11355    0.12289    1.000
    H45      H        0.33011    0.93399    0.11934    1.000
    H46      H        0.31601    0.98661    0.13162    1.000
    H47      H        0.49854    0.16610    0.13459    1.000
    H48      H        0.53866    0.35378    0.82026    1.000
    H49      H        0.52683    0.34885    0.86801    1.000
    H50      H        0.68434    0.48597    0.85350    1.000
    H51      H        0.52482    0.14901    0.18661    1.000
    H52      H        0.34250    0.96942    0.18349    1.000
    H53      H        0.70361    0.56293    0.82216    1.000
    H54      H        0.70343    0.56850    0.87038    1.000
    H55      H        0.32393    0.01704    0.19699    1.000
    H56      H        0.50544    0.19706    0.19892    1.000
    H57      H        0.36124    0.00989    0.24869    1.000
    H58      H        0.43435    0.12404    0.26055    1.000
    H59      H        0.54281    0.19164    0.25104    1.000
    H60      H        0.69863    0.76760    0.14329    1.000
    H61      H        0.89668    0.24943    0.93038    1.000
    Zn62     Zn       0.38613    0.48143    0.02946    1.000
    Zn63     Zn       0.30548    0.56327    0.02493    1.000
    Zn64     Zn       0.39133    0.73009    0.98182    1.000
    P65      P        0.31149    0.73380    0.99252    1.000
    P66      P        0.44198    0.61893    0.04868    1.000
    P67      P        0.14228    0.19257    0.03929    1.000
    P68      P        0.52675    0.83529    0.05481    1.000
    P69      P        0.19216    0.47860    0.94970    1.000
    O70      O        0.31712    0.77073    0.96223    1.000
    O71      O        0.14695    0.56881    0.98517    1.000
    O72      O        0.35119    0.73859    0.96608    1.000
    O73      O        0.34561    0.49195    0.03295    1.000
    O74      O        0.48871    0.67335    0.00987    1.000
    O75      O        0.32004    0.53151    0.04589    1.000
    O76      O        0.26040    0.33607    0.05253    1.000
    O77      O        0.03736    0.12070    0.01922    1.000
    O78      O        0.08173    0.13565    0.07829    1.000
    O79      O        0.45785    0.79980    0.02858    1.000
    O80      O        0.47229    0.74897    0.02784    1.000
    O81      O        0.67672    0.98352    0.04124    1.000
    O82      O        0.24152    0.49447    0.97778    1.000
    O83      O        0.03214    0.32252    0.95585    1.000
    O84      O        0.71410    0.91648    0.03899    1.000
    O85      O        0.70634    0.84046    0.02959    1.000
    O86      O        0.23229    0.55021    0.97880    1.000
    N87      N        0.65434    0.73000    0.16679    1.000
    N88      N        0.95653    0.32815    0.92313    1.000
    C89      C        0.56977    0.68065    0.16246    1.000
    C90      C        0.91977    0.30092    0.88487    1.000
    C91      C        0.92690    0.27415    0.86090    1.000
    C92      C        0.56964    0.74751    0.15315    1.000
    C93      C        0.89029    0.24799    0.82082    1.000
    C94      C        0.65501    0.79565    0.15536    1.000
    C95      C        0.89509    0.21917    0.79647    1.000
    C96      C        0.86326    0.19805    0.75657    1.000
    H97      H        0.69392    0.92183    0.03077    1.000
    H98      H        0.80618    0.93711    0.03650    1.000
    H99      H        0.59402    0.64993    0.17150    1.000
    H100     H        0.72983    0.80617    0.18902    1.000
    H101     H        0.93965    0.33450    0.93885    1.000
    H102     H        0.05932    0.42048    0.92809    1.000
    H103     H        0.52141    0.63877    0.18741    1.000
    H104     H        0.48778    0.59738    0.13930    1.000
    H105     H        0.99090    0.39008    0.87705    1.000
    H106     H        0.81486    0.21090    0.88063    1.000
    H107     H        0.85480    0.18412    0.86841    1.000
    H108     H        0.03140    0.36365    0.86544    1.000
    H109     H        0.53402    0.71917    0.17964    1.000
    H110     H        0.48028    0.65835    0.13198    1.000
    H111     H        0.63211    0.83060    0.14612    1.000
    H112     H        0.96276    0.33829    0.81336    1.000
    H113     H        0.78619    0.15915    0.81648    1.000
    H114     H        0.74103    0.88194    0.17756    1.000
    H115     H        0.69734    0.83233    0.12941    1.000
    H116     H        0.81941    0.12620    0.80304    1.000
    H117     H        0.99768    0.30573    0.80118    1.000
    H118     H        0.76159    0.11277    0.75127    1.000
    H119     H        0.86337    0.17340    0.73950    1.000
    H120     H        0.94114    0.29193    0.74900    1.000
    H121     H        0.62467    0.55580    0.85686    1.000
    H122     H        0.31891    0.96610    0.06963    1.000
    Zn123    Zn       0.10677    0.63626    0.40471    1.000
    Zn124    Zn       0.03050    0.55539    0.24217    1.000
    Zn125    Zn       0.15941    0.64122    0.16124    1.000
    P126     P        0.06907    0.56155    0.07768    1.000
    P127     P        0.14327    0.69189    0.32300    1.000
    P128     P        0.85298    0.39232    0.44973    1.000
    P129     P        0.22176    0.77656    0.19144    1.000
    P130     P        0.99249    0.44214    0.21356    1.000
    O131     O        0.10476    0.56689    0.04642    1.000
    O132     O        0.91187    0.39700    0.07819    1.000
    O133     O        0.13494    0.60101    0.11261    1.000
    O134     O        0.06260    0.59558    0.35367    1.000
    O135     O        0.22859    0.73835    0.31535    1.000
    O136     O        0.02405    0.56988    0.28850    1.000
    O137     O        0.95802    0.51059    0.42439    1.000
    O138     O        0.76820    0.28747    0.41666    1.000
    O139     O        0.75347    0.33182    0.44609    1.000
    O140     O        0.17907    0.70764    0.15804    1.000
    O141     O        0.19446    0.72225    0.22330    1.000
    O142     O        0.38530    0.92655    0.19312    1.000
    O143     O        0.01369    0.49143    0.24703    1.000
    O144     O        0.82632    0.28211    0.20959    1.000
    O145     O        0.42513    0.96402    0.29776    1.000
    O146     O        0.42665    0.95582    0.36602    1.000
    O147     O        0.00353    0.48229    0.18209    1.000
    N148     N        0.23778    0.90446    0.42433    1.000
    N149     N        0.78322    0.20637    0.12829    1.000
    C150     C        0.15735    0.81972    0.38913    1.000
    C151     C        0.78473    0.16959    0.11890    1.000
    C152     C        0.81604    0.17704    0.15288    1.000
    C153     C        0.16611    0.81927    0.32211    1.000
    C154     C        0.81957    0.14045    0.14258    1.000
    C155     C        0.24948    0.90486    0.35931    1.000
    C156     C        0.84909    0.14577    0.17630    1.000
    C157     C        0.85702    0.11376    0.16577    1.000
    H158     H        0.41258    0.94340    0.27218    1.000
    H159     H        0.51947    0.05563    0.36925    1.000
    H160     H        0.17291    0.84420    0.44413    1.000
    H161     H        0.29075    0.97972    0.42367    1.000
    H162     H        0.75062    0.18941    0.10501    1.000
    H163     H        0.88106    0.30920    0.13872    1.000
    H164     H        0.08382    0.77111    0.38273    1.000
    H165     H        0.09878    0.73793    0.39041    1.000
    H166     H        0.86362    0.24059    0.10086    1.000
    H167     H        0.68403    0.06459    0.10406    1.000
    H168     H        0.73655    0.10513    0.17083    1.000
    H169     H        0.91604    0.28164    0.16781    1.000
    H170     H        0.10360    0.78322    0.31490    1.000
    H171     H        0.09826    0.73017    0.32191    1.000
    H172     H        0.23546    0.88172    0.30143    1.000
    H173     H        0.89936    0.21272    0.12472    1.000
    H174     H        0.71974    0.03621    0.12740    1.000
    H175     H        0.31302    0.99066    0.35903    1.000
    H176     H        0.31804    0.94750    0.36490    1.000
    H177     H        0.76705    0.07039    0.19365    1.000
    H178     H        0.94712    0.24856    0.19223    1.000
    H179     H        0.76041    0.01178    0.14954    1.000
    H180     H        0.87471    0.11448    0.19061    1.000
    H181     H        0.94210    0.19120    0.14966    1.000
    H182     H        0.51721    0.87414    0.56895    1.000
    H183     H        0.99955    0.56933    0.85294    1.000
    Zn184    Zn       0.23147    0.70204    0.59531    1.000
    Zn185    Zn       0.31322    0.78830    0.75782    1.000
    Zn186    Zn       0.48012    0.99823    0.83877    1.000
    P187     P        0.48391    0.99135    0.92234    1.000
    P188     P        0.36889    0.82022    0.67699    1.000
    P189     P        0.94252    0.40326    0.55031    1.000
    P190     P        0.58513    0.03028    0.80854    1.000
    P191     P        0.22861    0.77891    0.78648    1.000
    O192     O        0.52063    0.05839    0.95359    1.000
    O193     O        0.31887    0.83367    0.92184    1.000
    O194     O        0.48865    0.02248    0.88741    1.000
    O195     O        0.24198    0.70908    0.64636    1.000
    O196     O        0.42339    0.91352    0.68470    1.000
    O197     O        0.28142    0.73555    0.71150    1.000
    O198     O        0.08601    0.53352    0.57569    1.000
    O199     O        0.87058    0.35139    0.58334    1.000
    O200     O        0.88568    0.30740    0.55394    1.000
    O201     O        0.54972    0.02107    0.84196    1.000
    O202     O        0.49890    0.97108    0.77672    1.000
    O203     O        0.73348    0.19216    0.80687    1.000
    O204     O        0.24439    0.76660    0.75299    1.000
    O205     O        0.07253    0.61670    0.79044    1.000
    O206     O        0.66648    0.12751    0.70241    1.000
    O207     O        0.59048    0.06093    0.63417    1.000
    O208     O        0.30022    0.82141    0.81795    1.000
    N209     N        0.47971    0.81311    0.57559    1.000
    N210     N        0.07834    0.65551    0.87171    1.000
    C211     C        0.43062    0.76824    0.61086    1.000
    C212     C        0.05078    0.66624    0.88108    1.000
    C213     C        0.02405    0.66335    0.84710    1.000
    C214     C        0.49789    0.84468    0.67785    1.000
    C215     C        0.99755    0.67698    0.85738    1.000
    C216     C        0.54576    0.89045    0.64059    1.000
    C217     C        0.96884    0.67245    0.82365    1.000
    C218     C        0.94701    0.69056    0.83416    1.000
    H219     H        0.67163    0.14088    0.72795    1.000
    H220     H        0.68715    0.15067    0.63099    1.000
    H221     H        0.39953    0.72826    0.55586    1.000
    H222     H        0.55590    0.86710    0.57618    1.000
    H223     H        0.08518    0.64673    0.89502    1.000
    H224     H        0.17052    0.74275    0.86117    1.000
    H225     H        0.38891    0.70153    0.61730    1.000
    H226     H        0.34728    0.70804    0.60967    1.000
    H227     H        0.13978    0.76316    0.89912    1.000
    H228     H        0.96064    0.58037    0.89594    1.000
    H229     H        0.93421    0.56590    0.82917    1.000
    H230     H        0.11368    0.74842    0.83215    1.000
    H231     H        0.46959    0.78985    0.68507    1.000
    H232     H        0.40877    0.77671    0.67815    1.000
    H233     H        0.58112    0.93487    0.69847    1.000
    H234     H        0.08768    0.77468    0.87521    1.000
    H235     H        0.90857    0.59237    0.87259    1.000
    H236     H        0.63210    0.95462    0.64077    1.000
    H237     H        0.58227    0.95295    0.63498    1.000
    H238     H        0.87619    0.57307    0.80632    1.000
    H239     H        0.05568    0.75458    0.80771    1.000
    H240     H        0.86140    0.61025    0.85044    1.000
    H241     H        0.92251    0.68302    0.80931    1.000
    H242     H        0.04053    0.79180    0.85021    1.000
    H243     H        0.30584    0.94906    0.43094    1.000
    H244     H        0.71613    0.14661    0.14714    1.000
    Zn245    Zn       0.86376    0.39325    0.59531    1.000
    Zn246    Zn       0.94465    0.46955    0.75784    1.000
    Zn247    Zn       0.85874    0.34053    0.83880    1.000
    P248     P        0.93857    0.43105    0.92237    1.000
    P249     P        0.80810    0.35671    0.67701    1.000
    P250     P        0.10764    0.64699    0.55029    1.000
    P251     P        0.72339    0.27816    0.80858    1.000
    P252     P        0.05795    0.50762    0.78648    1.000
    O253     O        0.93307    0.39525    0.95365    1.000
    O254     O        0.10313    0.58827    0.92189    1.000
    O255     O        0.89893    0.36499    0.88745    1.000
    O256     O        0.90441    0.43738    0.64635    1.000
    O257     O        0.76165    0.27142    0.68467    1.000
    O258     O        0.93012    0.47596    0.71151    1.000
    O259     O        0.98947    0.54204    0.57566    1.000
    O260     O        0.21257    0.73182    0.58334    1.000
    O261     O        0.16816    0.74651    0.55393    1.000
    O262     O        0.79234    0.32089    0.84199    1.000
    O263     O        0.77784    0.30564    0.77672    1.000
    O264     O        0.57340    0.11460    0.80685    1.000
    O265     O        0.00863    0.48639    0.75299    1.000
    O266     O        0.21796    0.67379    0.79043    1.000
    O267     O        0.53606    0.07496    0.70228    1.000
    O268     O        0.54420    0.07341    0.63402    1.000
    O269     O        0.01779    0.49656    0.81795    1.000
    N270     N        0.59578    0.26238    0.57558    1.000
    N271     N        0.29361    0.71675    0.87172    1.000
    C272     C        0.68034    0.34267    0.61081    1.000
    C273     C        0.33041    0.71526    0.88111    1.000
    C274     C        0.32297    0.68396    0.84714    1.000
    C275     C        0.68038    0.33365    0.67784    1.000
    C276     C        0.35969    0.68056    0.85745    1.000
    C277     C        0.59496    0.25042    0.64062    1.000
    C278     C        0.35434    0.65098    0.82373    1.000
    C279     C        0.38658    0.64330    0.83427    1.000
    H280     H        0.55665    0.08750    0.72787    1.000
    H281     H        0.44438    0.98053    0.63077    1.000
    H282     H        0.65619    0.32733    0.55579    1.000
    H283     H        0.52057    0.20947    0.57618    1.000
    H284     H        0.31062    0.74940    0.89499    1.000
    H285     H        0.19078    0.61891    0.86129    1.000
    H286     H        0.72907    0.41631    0.61718    1.000
    H287     H        0.76204    0.40112    0.60961    1.000
    H288     H        0.25943    0.63639    0.89916    1.000
    H289     H        0.43541    0.81596    0.89595    1.000
    H290     H        0.39484    0.76341    0.82918    1.000
    H291     H        0.21836    0.58392    0.83222    1.000
    H292     H        0.71661    0.39633    0.68502    1.000
    H293     H        0.76934    0.40132    0.67811    1.000
    H294     H        0.61774    0.26420    0.69852    1.000
    H295     H        0.28752    0.60085    0.87533    1.000
    H296     H        0.46397    0.78046    0.87260    1.000
    H297     H        0.50929    0.18706    0.64083    1.000
    H298     H        0.55212    0.18169    0.63506    1.000
    H299     H        0.42956    0.73289    0.80635    1.000
    H300     H        0.25148    0.55286    0.80784    1.000
    H301     H        0.48863    0.74002    0.85047    1.000
    H302     H        0.38584    0.62558    0.80943    1.000
    H303     H        0.30930    0.55833    0.85041    1.000
    H304     H        0.62562    0.98242    0.43095    1.000
    H305     H        0.93064    0.50041    0.14708    1.000
    Zn306    Zn       0.79798    0.26856    0.40471    1.000
    Zn307    Zn       0.71175    0.18682    0.24218    1.000
    Zn308    Zn       0.50177    0.01991    0.16120    1.000
    P309     P        0.50879    0.01620    0.07764    1.000
    P310     P        0.67983    0.13118    0.32303    1.000
    P311     P        0.09678    0.55752    0.44971    1.000
    P312     P        0.46964    0.91481    0.19144    1.000
    P313     P        0.72118    0.27148    0.21351    1.000
    O314     O        0.44159    0.97929    0.04636    1.000
    O315     O        0.66641    0.18120    0.07810    1.000
    O316     O        0.47745    0.01129    0.11256    1.000
    O317     O        0.79098    0.25809    0.35366    1.000
    O318     O        0.58653    0.07668    0.31532    1.000
    O319     O        0.76449    0.21864    0.28852    1.000
    O320     O        0.96646    0.41397    0.42435    1.000
    O321     O        0.14859    0.62939    0.41665    1.000
    O322     O        0.19261    0.61433    0.44609    1.000
    O323     O        0.47888    0.95026    0.15802    1.000
    O324     O        0.52893    0.00110    0.22329    1.000
    O325     O        0.30782    0.76654    0.19317    1.000
    O326     O        0.73339    0.25562    0.24700    1.000
    O327     O        0.88341    0.42755    0.20956    1.000
    O328     O        0.37259    0.83361    0.29760    1.000
    O329     O        0.43921    0.90962    0.36586    1.000
    O330     O        0.67860    0.19979    0.18204    1.000
    N331     N        0.68654    0.01981    0.42427    1.000
    N332     N        0.84450    0.42164    0.12830    1.000
    C333     C        0.73165    0.06920    0.38905    1.000
    C334     C        0.83374    0.44917    0.11893    1.000
    C335     C        0.83664    0.47591    0.15292    1.000
    C336     C        0.65560    0.00254    0.32206    1.000
    C337     C        0.82305    0.50244    0.14264    1.000
    C338     C        0.60959    0.95441    0.35929    1.000
    C339     C        0.82758    0.53117    0.17638    1.000
    C340     C        0.80948    0.55300    0.16587    1.000
    H341     H        0.35910    0.82834    0.27207    1.000
    H342     H        0.34946    0.81297    0.36908    1.000
    H343     H        0.77129    0.09980    0.44403    1.000
    H344     H        0.63238    0.94347    0.42359    1.000
    H345     H        0.85340    0.41492    0.10499    1.000
    H346     H        0.75724    0.32943    0.13882    1.000
    H347     H        0.79808    0.11061    0.38255    1.000
    H348     H        0.79219    0.15282    0.39035    1.000
    H349     H        0.73683    0.36019    0.10089    1.000
    H350     H        0.91960    0.53930    0.10407    1.000
    H351     H        0.93410    0.56574    0.17085    1.000
    H352     H        0.75158    0.38628    0.16787    1.000
    H353     H        0.71005    0.03044    0.31479    1.000
    H354     H        0.72399    0.09200    0.32186    1.000
    H355     H        0.56556    0.91961    0.30143    1.000
    H356     H        0.72535    0.41231    0.12482    1.000
    H357     H        0.90767    0.59142    0.12743    1.000
    H358     H        0.54503    0.86775    0.35902    1.000
    H359     H        0.54742    0.91825    0.36495    1.000
    H360     H        0.92695    0.62380    0.19371    1.000
    H361     H        0.74544    0.44432    0.19232    1.000
    H362     H        0.88977    0.63859    0.14958    1.000
    H363     H        0.81705    0.57752    0.19072    1.000
    H364     H        0.70823    0.45948    0.14983    1.000
    H365     H        0.55114    0.19427    0.56900    1.000
    H366     H        0.35335    0.78382    0.85285    1.000
    Zn367    Zn       0.01855    0.11382    0.97054    1.000
    Zn368    Zn       0.93682    0.19460    0.97511    1.000
    Zn369    Zn       0.77002    0.10875    0.01816    1.000
    P370     P        0.76621    0.18852    0.00753    1.000
    P371     P        0.88121    0.05815    0.95140    1.000
    P372     P        0.30756    0.35784    0.96072    1.000
    P373     P        0.66488    0.97339    0.94519    1.000
    P374     P        0.02146    0.30789    0.05034    1.000
    O375     O        0.72947    0.18304    0.03784    1.000
    O376     O        0.93124    0.35303    0.01486    1.000
    O377     O        0.76154    0.14889    0.03391    1.000
    O378     O        0.00830    0.15461    0.96703    1.000
    O379     O        0.82716    0.01173    0.99026    1.000
    O380     O        0.96861    0.18007    0.95416    1.000
    O381     O        0.16380    0.23933    0.94746    1.000
    O382     O        0.37904    0.46244    0.98076    1.000
    O383     O        0.36442    0.41836    0.92172    1.000
    O384     O        0.70035    0.04228    0.97141    1.000
    O385     O        0.75112    0.02780    0.97219    1.000
    O386     O        0.51661    0.82342    0.95875    1.000
    O387     O        0.00561    0.25856    0.02224    1.000
    O388     O        0.17754    0.46792    0.04420    1.000
    O389     O        0.58398    0.78623    0.96113    1.000
    O390     O        0.66009    0.79407    0.97082    1.000
    O391     O        0.94989    0.26780    0.02124    1.000
    N392     N        0.76988    0.84555    0.83314    1.000
    N393     N        0.17196    0.54359    0.07689    1.000
    C394     C        0.81934    0.93021    0.83752    1.000
    C395     C        0.19918    0.58033    0.11516    1.000
    C396     C        0.22593    0.57318    0.13913    1.000
    C397     C        0.75267    0.93053    0.84692    1.000
    C398     C        0.25200    0.60971    0.17921    1.000
    C399     C        0.70440    0.84505    0.84465    1.000
    C400     C        0.28079    0.60488    0.20355    1.000
    C401     C        0.30180    0.63659    0.24345    1.000
    H402     H        0.57870    0.80653    0.96923    1.000
    H403     H        0.56345    0.69428    0.96381    1.000
    H404     H        0.84991    0.90582    0.82842    1.000
    H405     H        0.69373    0.77011    0.81091    1.000
    H406     H        0.16552    0.56038    0.06118    1.000
    H407     H        0.07965    0.44081    0.07193    1.000
    H408     H        0.86129    0.97865    0.81259    1.000
    H409     H        0.90258    0.01213    0.86069    1.000
    H410     H        0.10999    0.50917    0.12298    1.000
    H411     H        0.28920    0.68524    0.11941    1.000
    H412     H        0.31597    0.64529    0.13163    1.000
    H413     H        0.13643    0.46868    0.13457    1.000
    H414     H        0.78110    0.96627    0.82045    1.000
    H415     H        0.84180    0.01982    0.86810    1.000
    H416     H        0.66961    0.86810    0.85396    1.000
    H417     H        0.16167    0.53720    0.18666    1.000
    H418     H        0.34083    0.71380    0.18356    1.000
    H419     H        0.61813    0.75909    0.82244    1.000
    H420     H        0.66766    0.80263    0.87059    1.000
    H421     H        0.37381    0.68062    0.19699    1.000
    H422     H        0.19426    0.50230    0.19882    1.000
    H423     H        0.38706    0.73825    0.24877    1.000
    H424     H        0.32640    0.63643    0.26052    1.000
    H425     H        0.20789    0.55867    0.25100    1.000
    H426     H        0.94418    0.87529    0.14310    1.000
    H427     H        0.53397    0.18114    0.93038    1.000
    Zn428    Zn       0.14328    0.04792    0.02945    1.000
    Zn429    Zn       0.21951    0.96166    0.02491    1.000
    Zn430    Zn       0.09061    0.75182    0.98184    1.000
    P431     P        0.18112    0.75877    0.99251    1.000
    P432     P        0.10679    0.92976    0.04868    1.000
    P433     P        0.39706    0.34670    0.03927    1.000
    P434     P        0.02835    0.71975    0.05484    1.000
    P435     P        0.25756    0.97107    0.94968    1.000
    O436     O        0.14531    0.69169    0.96218    1.000
    O437     O        0.33835    0.91648    0.98519    1.000
    O438     O        0.11504    0.72762    0.96609    1.000
    O439     O        0.18740    0.04100    0.03295    1.000
    O440     O        0.02129    0.83657    0.00986    1.000
    O441     O        0.22595    0.01441    0.04590    1.000
    O442     O        0.29205    0.21635    0.05252    1.000
    O443     O        0.48187    0.39842    0.01922    1.000
    O444     O        0.49656    0.44258    0.07827    1.000
    O445     O        0.07094    0.72893    0.02860    1.000
    O446     O        0.05563    0.77888    0.02782    1.000
    O447     O        0.86479    0.55787    0.04132    1.000
    O448     O        0.23638    0.98338    0.97778    1.000
    O449     O        0.42373    0.13328    0.95582    1.000
    O450     O        0.82483    0.62244    0.03895    1.000
    O451     O        0.82336    0.68922    0.02947    1.000
    O452     O        0.24655    0.92860    0.97879    1.000
    N453     N        0.01232    0.93686    0.16656    1.000
    N454     N        0.46688    0.09516    0.92316    1.000
    C455     C        0.09256    0.98186    0.16230    1.000
    C456     C        0.46533    0.08406    0.88490    1.000
    C457     C        0.43399    0.08658    0.86088    1.000
    C458     C        0.08345    0.90573    0.15329    1.000
    C459     C        0.43059    0.07268    0.82082    1.000
    C460     C        0.00026    0.85976    0.15547    1.000
    C461     C        0.40104    0.07673    0.79643    1.000
    C462     C        0.39328    0.05823    0.75656    1.000
    H463     H        0.83726    0.60932    0.03079    1.000
    H464     H        0.73044    0.59949    0.03638    1.000
    H465     H        0.07729    0.02161    0.17108    1.000
    H466     H        0.95944    0.88340    0.18887    1.000
    H467     H        0.49948    0.10454    0.93889    1.000
    H468     H        0.36906    0.00781    0.92812    1.000
    H469     H        0.16626    0.04920    0.18720    1.000
    H470     H        0.15095    0.04143    0.13903    1.000
    H471     H        0.38644    0.98711    0.87711    1.000
    H472     H        0.56604    0.16990    0.88065    1.000
    H473     H        0.51341    0.18400    0.86837    1.000
    H474     H        0.33394    0.00149    0.86541    1.000
    H475     H        0.14612    0.96122    0.17974    1.000
    H476     H        0.15113    0.97313    0.13199    1.000
    H477     H        0.01397    0.81558    0.14649    1.000
    H478     H        0.35087    0.97507    0.81338    1.000
    H479     H        0.53047    0.15738    0.81648    1.000
    H480     H        0.93695    0.79626    0.17779    1.000
    H481     H        0.93149    0.79654    0.12958    1.000
    H482     H        0.48299    0.17607    0.80301    1.000
    H483     H        0.30294    0.99457    0.80111    1.000
    H484     H        0.48988    0.13852    0.75129    1.000
    H485     H        0.37580    0.06550    0.73946    1.000
    H486     H        0.30814    0.95699    0.74898    1.000
    H487     H        0.73223    0.80119    0.85663    1.000
    H488     H        0.25071    0.60348    0.06963    1.000
    Zn489    Zn       0.29794    0.89330    0.52946    1.000
    Zn490    Zn       0.21166    0.96952    0.52491    1.000
    Zn491    Zn       0.00180    0.84061    0.48183    1.000
    P492     P        0.00872    0.93106    0.49251    1.000
    P493     P        0.17974    0.85676    0.54864    1.000
    P494     P        0.59676    0.14712    0.53929    1.000
    P495     P        0.96968    0.77828    0.55482    1.000
    P496     P        0.22109    0.00757    0.44968    1.000
    O497     O        0.94159    0.89521    0.46219    1.000
    O498     O        0.16648    0.08835    0.48519    1.000
    O499     O        0.97761    0.86504    0.46607    1.000
    O500     O        0.29112    0.93751    0.53298    1.000
    O501     O        0.08675    0.77143    0.50979    1.000
    O502     O        0.26440    0.97594    0.54588    1.000
    O503     O        0.46633    0.04198    0.55253    1.000
    O504     O        0.64839    0.23185    0.51924    1.000
    O505     O        0.69259    0.24658    0.57830    1.000
    O506     O        0.97888    0.82090    0.52859    1.000
    O507     O        0.02888    0.80563    0.52781    1.000
    O508     O        0.80782    0.61472    0.54129    1.000
    O509     O        0.23340    0.98640    0.47777    1.000
    O510     O        0.38329    0.17375    0.45581    1.000
    O511     O        0.87253    0.57486    0.53889    1.000
    O512     O        0.93929    0.57335    0.52927    1.000
    O513     O        0.17862    0.99656    0.47879    1.000
    N514     N        0.18690    0.76235    0.66659    1.000
    N515     N        0.34516    0.21688    0.42315    1.000
    C516     C        0.23191    0.84259    0.66231    1.000
    C517     C        0.33407    0.21533    0.38489    1.000
    C518     C        0.33660    0.18400    0.36088    1.000
    C519     C        0.15579    0.83350    0.65327    1.000
    C520     C        0.32272    0.18062    0.32081    1.000
    C521     C        0.10982    0.75031    0.65548    1.000
    C522     C        0.32675    0.15107    0.29642    1.000
    C523     C        0.30827    0.14333    0.25655    1.000
    H524     H        0.85955    0.58745    0.53080    1.000
    H525     H        0.84963    0.48048    0.53621    1.000
    H526     H        0.27165    0.82732    0.67111    1.000
    H527     H        0.13348    0.70953    0.68891    1.000
    H528     H        0.35452    0.24945    0.43887    1.000
    H529     H        0.25783    0.11906    0.42811    1.000
    H530     H        0.29928    0.91633    0.68720    1.000
    H531     H        0.29144    0.90094    0.63904    1.000
    H532     H        0.23713    0.13646    0.37710    1.000
    H533     H        0.41990    0.31604    0.38064    1.000
    H534     H        0.43401    0.26343    0.36836    1.000
    H535     H        0.25150    0.08395    0.36540    1.000
    H536     H        0.21132    0.89621    0.67971    1.000
    H537     H        0.22316    0.90114    0.63197    1.000
    H538     H        0.06564    0.76402    0.64646    1.000
    H539     H        0.22511    0.10092    0.31337    1.000
    H540     H        0.40741    0.28051    0.31648    1.000
    H541     H        0.04636    0.68705    0.67781    1.000
    H542     H        0.04656    0.68149    0.62960    1.000
    H543     H        0.42608    0.23300    0.30300    1.000
    H544     H        0.24459    0.05296    0.30109    1.000
    H545     H        0.38858    0.23995    0.25129    1.000
    H546     H        0.31554    0.12586    0.23944    1.000
    H547     H        0.20703    0.05820    0.24897    1.000
    H548     H        0.05136    0.48239    0.35670    1.000
    H549     H        0.85340    0.00063    0.56963    1.000
    Zn550    Zn       0.36387    0.76857    0.47056    1.000
    Zn551    Zn       0.44447    0.68666    0.47508    1.000
    Zn552    Zn       0.35873    0.51999    0.51814    1.000
    P553     P        0.43843    0.51614    0.50749    1.000
    P554     P        0.30808    0.63113    0.45132    1.000
    P555     P        0.60777    0.05747    0.46072    1.000
    P556     P        0.22329    0.41475    0.44516    1.000
    P557     P        0.55780    0.77138    0.55032    1.000
    O558     O        0.43299    0.47942    0.53781    1.000
    O559     O        0.60298    0.68120    0.51482    1.000
    O560     O        0.39891    0.51153    0.53388    1.000
    O561     O        0.40448    0.75814    0.46705    1.000
    O562     O        0.26138    0.57675    0.49014    1.000
    O563     O        0.42999    0.71851    0.45411    1.000
    O564     O        0.48955    0.91391    0.44747    1.000
    O565     O        0.71265    0.12929    0.48078    1.000
    O566     O        0.66831    0.11439    0.42172    1.000
    O567     O        0.29226    0.45031    0.47139    1.000
    O568     O        0.27765    0.50095    0.47216    1.000
    O569     O        0.07332    0.26649    0.45873    1.000
    O570     O        0.50846    0.75551    0.52222    1.000
    O571     O        0.71785    0.92749    0.54419    1.000
    O572     O        0.03597    0.33360    0.46103    1.000
    O573     O        0.04363    0.40953    0.47045    1.000
    O574     O        0.51775    0.69984    0.52122    1.000
    N575     N        0.09564    0.51997    0.33320    1.000
    N576     N        0.79351    0.92188    0.57689    1.000
    C577     C        0.18023    0.56934    0.33754    1.000
    C578     C        0.83025    0.94911    0.61516    1.000
    C579     C        0.82313    0.97588    0.63913    1.000
    C580     C        0.18041    0.50253    0.34688    1.000
    C581     C        0.85962    0.00193    0.67921    1.000
    C582     C        0.09502    0.45437    0.34466    1.000
    C583     C        0.85482    0.03076    0.70355    1.000
    C584     C        0.88649    0.05173    0.74344    1.000
    H585     H        0.05613    0.32822    0.46923    1.000
    H586     H        0.94381    0.31284    0.46350    1.000
    H587     H        0.15594    0.60002    0.32847    1.000
    H588     H        0.02014    0.44378    0.31097    1.000
    H589     H        0.81033    0.91547    0.56118    1.000
    H590     H        0.69072    0.82958    0.57194    1.000
    H591     H        0.22858    0.61121    0.31259    1.000
    H592     H        0.26223    0.65263    0.36069    1.000
    H593     H        0.75911    0.85993    0.62298    1.000
    H594     H        0.93516    0.03912    0.61941    1.000
    H595     H        0.89526    0.06594    0.63163    1.000
    H596     H        0.71863    0.88639    0.63456    1.000
    H597     H        0.21603    0.53087    0.32039    1.000
    H598     H        0.26978    0.59171    0.36804    1.000
    H599     H        0.11796    0.41945    0.35392    1.000
    H600     H        0.78708    0.91157    0.68667    1.000
    H601     H        0.96369    0.09072    0.68357    1.000
    H602     H        0.00899    0.36806    0.32247    1.000
    H603     H        0.05271    0.41772    0.37062    1.000
    H604     H        0.93061    0.12381    0.69699    1.000
    H605     H        0.75227    0.94426    0.69881    1.000
    H606     H        0.98815    0.13698    0.74878    1.000
    H607     H        0.88634    0.07635    0.76052    1.000
    H608     H        0.80855    0.95781    0.75100    1.000
    H609     H        0.12530    0.69417    0.64314    1.000
    H610     H        0.43116    0.28400    0.43038    1.000
    Zn611    Zn       0.64324    0.61376    0.09529    1.000
    Zn612    Zn       0.71950    0.69461    0.25783    1.000
    Zn613    Zn       0.59048    0.60869    0.33878    1.000
    P614     P        0.68099    0.68852    0.42233    1.000
    P615     P        0.60670    0.55808    0.17699    1.000
    P616     P        0.89697    0.85762    0.05028    1.000
    P617     P        0.52817    0.47340    0.30857    1.000
    P618     P        0.75753    0.80787    0.28646    1.000
    O619     O        0.64518    0.68299    0.45361    1.000
    O620     O        0.83823    0.85310    0.42189    1.000
    O621     O        0.61488    0.64883    0.38739    1.000
    O622     O        0.68735    0.65439    0.14634    1.000
    O623     O        0.52136    0.51158    0.18464    1.000
    O624     O        0.72593    0.68010    0.21149    1.000
    O625     O        0.79203    0.73945    0.07564    1.000
    O626     O        0.98182    0.96256    0.08332    1.000
    O627     O        0.99650    0.91815    0.05391    1.000
    O628     O        0.57081    0.54226    0.34198    1.000
    O629     O        0.55562    0.52784    0.27672    1.000
    O630     O        0.36462    0.32341    0.30685    1.000
    O631     O        0.73631    0.75855    0.25299    1.000
    O632     O        0.92370    0.96788    0.29041    1.000
    O633     O        0.32492    0.28602    0.20226    1.000
    O634     O        0.32342    0.29420    0.13399    1.000
    O635     O        0.74651    0.76775    0.31793    1.000
    N636     N        0.51224    0.34557    0.07566    1.000
    N637     N        0.96674    0.04358    0.37170    1.000
    C638     C        0.59266    0.43030    0.11086    1.000
    C639     C        0.96525    0.08038    0.38109    1.000
    C640     C        0.93395    0.07294    0.34712    1.000
    C641     C        0.58390    0.43072    0.17789    1.000
    C642     C        0.93050    0.10961    0.35741    1.000
    C643     C        0.50053    0.34514    0.14069    1.000
    C644     C        0.90098    0.10430    0.32370    1.000
    C645     C        0.89315    0.13641    0.33423    1.000
    H646     H        0.33737    0.30654    0.22784    1.000
    H647     H        0.23055    0.19437    0.13074    1.000
    H648     H        0.57711    0.40584    0.05586    1.000
    H649     H        0.45928    0.27032    0.07632    1.000
    H650     H        0.99938    0.06058    0.39498    1.000
    H651     H        0.86890    0.94076    0.36127    1.000
    H652     H        0.66619    0.47890    0.11726    1.000
    H653     H        0.65124    0.51208    0.10960    1.000
    H654     H        0.88638    0.00940    0.39914    1.000
    H655     H        0.06597    0.18539    0.39593    1.000
    H656     H        0.01344    0.14484    0.32917    1.000
    H657     H        0.83395    0.96834    0.33218    1.000
    H658     H        0.64640    0.46676    0.18509    1.000
    H659     H        0.65176    0.51982    0.17809    1.000
    H660     H        0.51456    0.36827    0.19857    1.000
    H661     H        0.85074    0.03737    0.37528    1.000
    H662     H        0.03036    0.21386    0.37258    1.000
    H663     H        0.43699    0.25934    0.14096    1.000
    H664     H        0.43197    0.30250    0.13510    1.000
    H665     H        0.98297    0.17962    0.30634    1.000
    H666     H        0.80290    0.00148    0.30778    1.000
    H667     H        0.98979    0.23840    0.35045    1.000
    H668     H        0.87546    0.13569    0.30939    1.000
    H669     H        0.80811    0.05903    0.35034    1.000
    H670     H        0.23283    0.37588    0.93105    1.000
    H671     H        0.75040    0.68060    0.64707    1.000
    Zn672    Zn       0.51852    0.54794    0.90469    1.000
    Zn673    Zn       0.43680    0.46173    0.74217    1.000
    Zn674    Zn       0.26987    0.25174    0.66120    1.000
    P675     P        0.26609    0.25866    0.57762    1.000
    P676     P        0.38108    0.42975    0.82301    1.000
    P677     P        0.80743    0.84670    0.94969    1.000
    P678     P        0.16480    0.21963    0.69144    1.000
    P679     P        0.52142    0.47112    0.71350    1.000
    O680     O        0.22928    0.19156    0.54637    1.000
    O681     O        0.43114    0.41634    0.57811    1.000
    O682     O        0.26135    0.22753    0.61256    1.000
    O683     O        0.50798    0.54088    0.85363    1.000
    O684     O        0.32659    0.33646    0.81528    1.000
    O685     O        0.46857    0.51445    0.78850    1.000
    O686     O        0.66396    0.71645    0.92429    1.000
    O687     O        0.87941    0.89861    0.91665    1.000
    O688     O        0.86426    0.94255    0.94608    1.000
    O689     O        0.20021    0.22883    0.65802    1.000
    O690     O        0.25107    0.27889    0.72327    1.000
    O691     O        0.01651    0.05780    0.69316    1.000
    O692     O        0.50563    0.48342    0.74699    1.000
    O693     O        0.67747    0.63334    0.70954    1.000
    O694     O        0.08349    0.12248    0.79757    1.000
    O695     O        0.15955    0.18914    0.86583    1.000
    O696     O        0.44973    0.42855    0.68203    1.000
    N697     N        0.27035    0.43693    0.92442    1.000
    N698     N        0.67162    0.59444    0.62830    1.000
    C699     C        0.31938    0.48176    0.88915    1.000
    C700     C        0.69918    0.58371    0.61892    1.000
    C701     C        0.72593    0.58662    0.65291    1.000
    C702     C        0.25202    0.40527    0.82215    1.000
    C703     C        0.75248    0.57306    0.64264    1.000
    C704     C        0.20420    0.35953    0.85942    1.000
    C705     C        0.78119    0.57756    0.67637    1.000
    C706     C        0.80308    0.55952    0.66586    1.000
    H707     H        0.07827    0.10906    0.77203    1.000
    H708     H        0.06291    0.09939    0.86905    1.000
    H709     H        0.35055    0.52179    0.94416    1.000
    H710     H        0.19418    0.38298    0.92385    1.000
    H711     H        0.66485    0.60330    0.60499    1.000
    H712     H        0.57942    0.50719    0.63883    1.000
    H713     H        0.36114    0.54851    0.88272    1.000
    H714     H        0.40269    0.54192    0.89032    1.000
    H715     H        0.61019    0.48679    0.60089    1.000
    H716     H        0.78930    0.66957    0.60407    1.000
    H717     H        0.81576    0.68408    0.67084    1.000
    H718     H        0.63628    0.50154    0.66786    1.000
    H719     H        0.28033    0.46010    0.81494    1.000
    H720     H        0.34113    0.47321    0.82184    1.000
    H721     H        0.16877    0.31506    0.80153    1.000
    H722     H        0.66238    0.47538    0.62481    1.000
    H723     H        0.84147    0.65769    0.62743    1.000
    H724     H        0.11789    0.29541    0.85925    1.000
    H725     H        0.16763    0.29698    0.86502    1.000
    H726     H        0.87379    0.67691    0.69371    1.000
    H727     H        0.69431    0.49539    0.69230    1.000
    H728     H        0.88871    0.63985    0.64958    1.000
    H729     H        0.82759    0.56708    0.69071    1.000
    H730     H        0.70959    0.45829    0.64981    1.000
    H731     H        0.44418    0.30097    0.06906    1.000
    H732     H        0.03379    0.10330    0.35283    1.000
    Zn733    Zn       0.88625    0.85675    0.90470    1.000
    Zn734    Zn       0.80534    0.78045    0.74216    1.000
    Zn735    Zn       0.89116    0.90936    0.66123    1.000
    P736     P        0.81141    0.81892    0.57766    1.000
    P737     P        0.94186    0.89323    0.82298    1.000
    P738     P        0.64231    0.60297    0.94971    1.000
    P739     P        0.02651    0.97172    0.69142    1.000
    P740     P        0.69208    0.74242    0.71354    1.000
    O741     O        0.81691    0.85476    0.54640    1.000
    O742     O        0.64685    0.66172    0.57815    1.000
    O743     O        0.85090    0.88482    0.61258    1.000
    O744     O        0.84558    0.81259    0.85365    1.000
    O745     O        0.98828    0.97852    0.81533    1.000
    O746     O        0.81980    0.77397    0.78849    1.000
    O747     O        0.76054    0.70798    0.92436    1.000
    O748     O        0.53741    0.51814    0.91665    1.000
    O749     O        0.58183    0.50348    0.94607    1.000
    O750     O        0.95761    0.92905    0.65802    1.000
    O751     O        0.97221    0.94441    0.72329    1.000
    O752     O        0.17651    0.13526    0.69311    1.000
    O753     O        0.74133    0.76358    0.74702    1.000
    O754     O        0.53206    0.57626    0.70958    1.000
    O755     O        0.21392    0.17503    0.79772    1.000
    O756     O        0.20584    0.17667    0.86599    1.000
    O757     O        0.73225    0.75349    0.68207    1.000
    N758     N        0.15425    0.98764    0.92441    1.000
    N759     N        0.45631    0.53317    0.62828    1.000
    C760     C        0.06966    0.90733    0.88918    1.000
    C761     C        0.41952    0.53468    0.61888    1.000
    C762     C        0.42696    0.56598    0.65285    1.000
    C763     C        0.06956    0.91631    0.82216    1.000
    C764     C        0.39034    0.56946    0.64254    1.000
    C765     C        0.15501    0.99956    0.85937    1.000
    C766     C        0.39568    0.59903    0.67626    1.000
    C767     C        0.36352    0.60680    0.66573    1.000
    H768     H        0.19333    0.16250    0.77214    1.000
    H769     H        0.30566    0.26950    0.86921    1.000
    H770     H        0.09386    0.92270    0.94419    1.000
    H771     H        0.22947    0.04056    0.92379    1.000
    H772     H        0.43936    0.50059    0.60500    1.000
    H773     H        0.55914    0.63101    0.63871    1.000
    H774     H        0.02092    0.83368    0.88281    1.000
    H775     H        0.98797    0.84889    0.89039    1.000
    H776     H        0.49052    0.61355    0.60084    1.000
    H777     H        0.31453    0.43398    0.60404    1.000
    H778     H        0.35507    0.48651    0.67081    1.000
    H779     H        0.53158    0.66600    0.66778    1.000
    H780     H        0.03331    0.85362    0.81498    1.000
    H781     H        0.98059    0.84864    0.82191    1.000
    H782     H        0.13218    0.98575    0.80148    1.000
    H783     H        0.46256    0.64921    0.62467    1.000
    H784     H        0.28608    0.46961    0.62738    1.000
    H785     H        0.24068    0.06293    0.85915    1.000
    H786     H        0.19784    0.06828    0.86494    1.000
    H787     H        0.32041    0.51709    0.69363    1.000
    H788     H        0.49852    0.69712    0.69216    1.000
    H789     H        0.26147    0.51009    0.64952    1.000
    H790     H        0.36429    0.62454    0.69057    1.000
    H791     H        0.44083    0.69178    0.64959    1.000
    H792     H        0.12441    0.26761    0.06905    1.000
    H793     H        0.81930    0.74953    0.35293    1.000
    Zn794    Zn       0.95200    0.98142    0.09527    1.000
    Zn795    Zn       0.03827    0.06318    0.25781    1.000
    Zn796    Zn       0.24821    0.23009    0.33878    1.000
    P797     P        0.24130    0.23387    0.42233    1.000
    P798     P        0.07013    0.11878    0.17696    1.000
    P799     P        0.65316    0.69242    0.05028    1.000
    P800     P        0.28028    0.33513    0.30853    1.000
    P801     P        0.02887    0.97857    0.28647    1.000
    O802     O        0.30836    0.27064    0.45361    1.000
    O803     O        0.08355    0.06878    0.42185    1.000
    O804     O        0.27244    0.23860    0.38742    1.000
    O805     O        0.95898    0.99188    0.14632    1.000
    O806     O        0.16342    0.17327    0.18467    1.000
    O807     O        0.98547    0.03132    0.21147    1.000
    O808     O        0.78352    0.83601    0.07563    1.000
    O809     O        0.60141    0.62060    0.08334    1.000
    O810     O        0.55732    0.63558    0.05392    1.000
    O811     O        0.27101    0.29967    0.34196    1.000
    O812     O        0.22110    0.24891    0.27671    1.000
    O813     O        0.44216    0.48347    0.30684    1.000
    O814     O        0.01655    0.99431    0.25298    1.000
    O815     O        0.86665    0.82248    0.29043    1.000
    O816     O        0.37743    0.41639    0.20238    1.000
    O817     O        0.31082    0.34036    0.13413    1.000
    O818     O        0.07137    0.05019    0.31793    1.000
    N819     N        0.06350    0.23024    0.07574    1.000
    N820     N        0.90544    0.82830    0.37171    1.000
    C821     C        0.01839    0.18083    0.11096    1.000
    C822     C        0.91622    0.80079    0.38108    1.000
    C823     C        0.91334    0.77407    0.34709    1.000
    C824     C        0.09443    0.24747    0.17794    1.000
    C825     C        0.92701    0.74762    0.35737    1.000
    C826     C        0.14044    0.29562    0.14071    1.000
    C827     C        0.92247    0.71888    0.32363    1.000
    C828     C        0.94067    0.69715    0.33414    1.000
    H829     H        0.39082    0.42156    0.22791    1.000
    H830     H        0.40055    0.43701    0.13094    1.000
    H831     H        0.97875    0.15025    0.05598    1.000
    H832     H        0.11767    0.30659    0.07643    1.000
    H833     H        0.89662    0.83510    0.39502    1.000
    H834     H        0.99269    0.92051    0.36118    1.000
    H835     H        0.95194    0.13940    0.11746    1.000
    H836     H        0.95785    0.09722    0.10965    1.000
    H837     H        0.01316    0.88980    0.39911    1.000
    H838     H        0.83038    0.71067    0.39594    1.000
    H839     H        0.81588    0.68422    0.32916    1.000
    H840     H        0.99839    0.86369    0.33214    1.000
    H841     H        0.03996    0.21956    0.18522    1.000
    H842     H        0.02605    0.15803    0.17814    1.000
    H843     H        0.18447    0.33041    0.19857    1.000
    H844     H        0.02473    0.83777    0.37519    1.000
    H845     H        0.84243    0.65865    0.37258    1.000
    H846     H        0.20499    0.38227    0.14099    1.000
    H847     H        0.20262    0.33178    0.13505    1.000
    H848     H        0.82307    0.62620    0.30631    1.000
    H849     H        0.00456    0.80569    0.30768    1.000
    H850     H        0.86039    0.61156    0.35043    1.000
    H851     H        0.93313    0.67265    0.30930    1.000
    H852     H        0.04193    0.79069    0.35019    1.000
    H853     H        0.19890    0.05575    0.93099    1.000
    H854     H        0.39655    0.46609    0.64714    1.000
    Zn855    Zn       0.73148    0.13621    0.52946    1.000
    Zn856    Zn       0.81318    0.05540    0.52489    1.000
    Zn857    Zn       0.98003    0.14128    0.48180    1.000
    P858     P        0.98380    0.06153    0.49250    1.000
    P859     P        0.86885    0.19191    0.54860    1.000
    P860     P        0.44250    0.89221    0.53929    1.000
    P861     P        0.08517    0.27663    0.55478    1.000
    P862     P        0.72850    0.94205    0.44967    1.000
    O863     O        0.02073    0.06714    0.46226    1.000
    O864     O        0.81877    0.89693    0.48514    1.000
    O865     O        0.98866    0.10130    0.46607    1.000
    O866     O        0.74182    0.09552    0.53297    1.000
    O867     O        0.92292    0.23834    0.50975    1.000
    O868     O        0.78134    0.06990    0.54582    1.000
    O869     O        0.58622    0.01065    0.55254    1.000
    O870     O        0.37096    0.78755    0.51924    1.000
    O871     O        0.38564    0.83171    0.57830    1.000
    O872     O        0.04972    0.20777    0.52855    1.000
    O873     O        0.99889    0.22221    0.52780    1.000
    O874     O        0.23347    0.42665    0.54123    1.000
    O875     O        0.74442    0.99146    0.47774    1.000
    O876     O        0.57245    0.78204    0.45584    1.000
    O877     O        0.16611    0.46384    0.53888    1.000
    O878     O        0.08990    0.45591    0.52924    1.000
    O879     O        0.80013    0.98222    0.47879    1.000
    N880     N        0.98008    0.40443    0.66685    1.000
    N881     N        0.57806    0.70643    0.42311    1.000
    C882     C        0.93065    0.31978    0.66248    1.000
    C883     C        0.55083    0.66969    0.38485    1.000
    C884     C        0.52409    0.67684    0.36088    1.000
    C885     C        0.99736    0.31950    0.65310    1.000
    C886     C        0.49797    0.64028    0.32079    1.000
    C887     C        0.04560    0.40496    0.65536    1.000
    C888     C        0.46920    0.64513    0.29645    1.000
    C889     C        0.44813    0.61336    0.25655    1.000
    H890     H        0.17144    0.44360    0.53079    1.000
    H891     H        0.18655    0.55571    0.53620    1.000
    H892     H        0.90004    0.34414    0.67156    1.000
    H893     H        0.05622    0.47985    0.68909    1.000
    H894     H        0.58441    0.68955    0.43883    1.000
    H895     H        0.67038    0.80921    0.42807    1.000
    H896     H        0.88870    0.27135    0.68742    1.000
    H897     H        0.84741    0.23785    0.63931    1.000
    H898     H        0.64002    0.74084    0.37702    1.000
    H899     H        0.46082    0.56478    0.38060    1.000
    H900     H        0.43407    0.60476    0.36838    1.000
    H901     H        0.61361    0.78136    0.36543    1.000
    H902     H        0.96894    0.28378    0.67958    1.000
    H903     H        0.90823    0.23020    0.63192    1.000
    H904     H        0.08042    0.38194    0.64607    1.000
    H905     H        0.58828    0.71276    0.31334    1.000
    H906     H        0.40913    0.53618    0.31644    1.000
    H907     H        0.13186    0.49092    0.67757    1.000
    H908     H        0.08235    0.44738    0.62943    1.000
    H909     H        0.37621    0.56943    0.30302    1.000
    H910     H        0.55575    0.74772    0.30118    1.000
    H911     H        0.36284    0.51168    0.25124    1.000
    H912     H        0.42350    0.61349    0.23948    1.000
    H913     H        0.54201    0.69124    0.24899    1.000
    H914     H        0.80582    0.37471    0.35692    1.000
    H915     H        0.21611    0.06893    0.56961    1.000
    Zn916    Zn       0.60672    0.20210    0.47055    1.000
    Zn917    Zn       0.53046    0.28833    0.47508    1.000
    Zn918    Zn       0.65944    0.49826    0.51817    1.000
    P919     P        0.56895    0.49134    0.50749    1.000
    P920     P        0.64328    0.32032    0.45132    1.000
    P921     P        0.35297    0.90334    0.46072    1.000
    P922     P        0.72181    0.53043    0.44520    1.000
    P923     P        0.49239    0.27889    0.55031    1.000
    O924     O        0.60472    0.55838    0.53778    1.000
    O925     O        0.41177    0.33367    0.51485    1.000
    O926     O        0.63491    0.52235    0.53388    1.000
    O927     O        0.56266    0.20907    0.46704    1.000
    O928     O        0.72875    0.41348    0.49014    1.000
    O929     O        0.52409    0.23564    0.45411    1.000
    O930     O        0.45793    0.03365    0.44747    1.000
    O931     O        0.26811    0.85154    0.48077    1.000
    O932     O        0.25348    0.80746    0.42171    1.000
    O933     O        0.67921    0.52123    0.47143    1.000
    O934     O        0.69436    0.47113    0.47219    1.000
    O935     O        0.88537    0.69226    0.45874    1.000
    O936     O        0.51359    0.26662    0.52221    1.000
    O937     O        0.32622    0.11669    0.54415    1.000
    O938     O        0.92515    0.62755    0.46103    1.000
    O939     O        0.92661    0.56077    0.47049    1.000
    O940     O        0.50346    0.32144    0.52121    1.000
    N941     N        0.73768    0.31313    0.33346    1.000
    N942     N        0.28317    0.15488    0.57683    1.000
    C943     C        0.65744    0.26813    0.33770    1.000
    C944     C        0.28469    0.16596    0.61509    1.000
    C945     C        0.31601    0.16341    0.63909    1.000
    C946     C        0.66655    0.34427    0.34668    1.000
    C947     C        0.31934    0.17723    0.67916    1.000
    C948     C        0.74974    0.39023    0.34452    1.000
    C949     C        0.34890    0.17321    0.70356    1.000
    C950     C        0.35652    0.19158    0.74343    1.000
    H951     H        0.91276    0.64071    0.46920    1.000
    H952     H        0.01957    0.65049    0.46361    1.000
    H953     H        0.67271    0.22837    0.32895    1.000
    H954     H        0.79055    0.36656    0.31114    1.000
    H955     H        0.25050    0.14542    0.56110    1.000
    H956     H        0.38101    0.24227    0.57187    1.000
    H957     H        0.58375    0.20079    0.31280    1.000
    H958     H        0.59904    0.20856    0.36096    1.000
    H959     H        0.36355    0.26288    0.62288    1.000
    H960     H        0.18399    0.08013    0.61933    1.000
    H961     H        0.23660    0.06601    0.63160    1.000
    H962     H        0.41609    0.24854    0.63457    1.000
    H963     H        0.60390    0.28878    0.32023    1.000
    H964     H        0.59887    0.27687    0.36798    1.000
    H965     H        0.73603    0.43442    0.35348    1.000
    H966     H        0.39900    0.27481    0.68660    1.000
    H967     H        0.21941    0.09249    0.68347    1.000
    H968     H        0.81306    0.45373    0.32220    1.000
    H969     H        0.81850    0.45345    0.37041    1.000
    H970     H        0.26701    0.07391    0.69696    1.000
    H971     H        0.44704    0.25541    0.69890    1.000
    H972     H        0.25988    0.11123    0.74868    1.000
    H973     H        0.37400    0.18431    0.76053    1.000
    H974     H        0.44163    0.29279    0.75103    1.000
    H975     H        0.01774    0.44878    0.64336    1.000
    H976     H        0.49935    0.64659    0.43037    1.000
    Ga977    Ga       0.77157    0.27153    0.04321    1.000
    Ga978    Ga       0.22852    0.72849    0.95682    1.000
    Ga979    Ga       0.02168    0.47841    0.00000    1.000
    Ga980    Ga       0.47831    0.02149    0.99999    1.000
    Ga981    Ga       0.97833    0.97838    0.45679    1.000
    Ga982    Ga       0.52157    0.52158    0.54321    1.000
    Ga983    Ga       0.72840    0.77165    0.49999    1.000
    Ga984    Ga       0.27155    0.22836    0.50000    1.000
    Zn985    Zn       0.83697    0.66294    0.00004    1.000
    Zn986    Zn       0.66326    0.83722    0.00010    1.000
    Zn987    Zn       0.41293    0.91284    0.32602    1.000
    Zn988    Zn       0.58720    0.08712    0.67401    1.000
    Zn989    Zn       0.91306    0.58709    0.49994    1.000
    Zn990    Zn       0.08681    0.41284    0.49992    1.000
    Zn991    Zn       0.33705    0.33711    0.17397    1.000
    Zn992    Zn       0.16278    0.16287    0.82599    1.000
    F993     F        0.62504    0.13705    0.01202    1.000
    F994     F        0.12506    0.61298    0.98796    1.000
    F995     F        0.88698    0.37492    0.01203    1.000
    F996     F        0.36302    0.87502    0.98797    1.000
    F997     F        0.12496    0.11294    0.48794    1.000
    F998     F        0.62495    0.63707    0.51202    1.000
    F999     F        0.86294    0.87495    0.48799    1.000
    F1000    F        0.38699    0.37499    0.51200    1.000
