# CIF file generated by openbabel 3.1.0, see https://openbabel.org
data_I
_chemical_name_common 'ACALIB_clean'
_cell_length_a 9.7494
_cell_length_b 11.0484
_cell_length_c 20.4845
_cell_angle_alpha 90
_cell_angle_beta 90
_cell_angle_gamma 108.898
_space_group_name_H-M_alt 'P 1'
_space_group_name_Hall 'P 1'
loop_
    _symmetry_equiv_pos_as_xyz
    x,y,z
loop_
    _atom_site_label
    _atom_site_type_symbol
    _atom_site_fract_x
    _atom_site_fract_y
    _atom_site_fract_z
    _atom_site_occupancy
    Er1      Er       0.30016    0.31522    0.96534    1.000
    Er2      Er       0.19984    0.68478    0.46534    1.000
    Er3      Er       0.69984    0.68478    0.03466    1.000
    Er4      Er       0.80016    0.31522    0.53466    1.000
    H1       H        0.75040    0.66280    0.34310    1.000
    H2       H        0.19280    0.29360    0.17080    1.000
    H3       H        0.99290    0.13090    0.20770    1.000
    H4       H        0.32030    0.36680    0.35810    1.000
    H5       H        0.77140    0.98230    0.18580    1.000
    H6       H        0.58040    0.55120    0.21190    1.000
    H7       H        0.38940    0.74390    0.24890    1.000
    H8       H        0.68540    0.94790    0.37770    1.000
    H9       H        0.74960    0.33720    0.84310    1.000
    H10      H        0.30720    0.70640    0.67080    1.000
    H11      H        0.50710    0.86910    0.70770    1.000
    H12      H        0.17970    0.63320    0.85810    1.000
    H13      H        0.72860    0.01770    0.68580    1.000
    H14      H        0.91960    0.44880    0.71190    1.000
    H15      H        0.11060    0.25610    0.74890    1.000
    H16      H        0.81460    0.05210    0.87770    1.000
    H17      H        0.24960    0.33720    0.65690    1.000
    H18      H        0.80720    0.70640    0.82920    1.000
    H19      H        0.00710    0.86910    0.79230    1.000
    H20      H        0.67970    0.63320    0.64190    1.000
    H21      H        0.22860    0.01770    0.81420    1.000
    H22      H        0.41960    0.44880    0.78810    1.000
    H23      H        0.61060    0.25610    0.75110    1.000
    H24      H        0.31460    0.05210    0.62230    1.000
    H25      H        0.25040    0.66280    0.15690    1.000
    H26      H        0.69280    0.29360    0.32920    1.000
    H27      H        0.49290    0.13090    0.29230    1.000
    H28      H        0.82030    0.36680    0.14190    1.000
    H29      H        0.27140    0.98230    0.31420    1.000
    H30      H        0.08040    0.55120    0.28810    1.000
    H31      H        0.88940    0.74390    0.25110    1.000
    H32      H        0.18540    0.94790    0.12230    1.000
    C1       C        0.74800    0.98270    0.28330    1.000
    C2       C        0.52310    0.83560    0.32160    1.000
    C3       C        0.57400    0.85600    0.20650    1.000
    C4       C        0.26080    0.33870    0.20140    1.000
    C5       C        0.99280    0.14250    0.25270    1.000
    C6       C        0.33740    0.38270    0.31380    1.000
    C7       C        0.42060    0.77320    0.37550    1.000
    C8       C        0.23370    0.31680    0.26800    1.000
    C9       C        0.70820    0.94630    0.21980    1.000
    C10      C        0.41980    0.45130    0.10910    1.000
    C11      C        0.53550    0.81300    0.13680    1.000
    C12      C        0.46620    0.47240    0.29270    1.000
    C13      C        0.39020    0.42830    0.18090    1.000
    C14      C        0.49300    0.49330    0.22600    1.000
    C15      C        0.57410    0.54220    0.34160    1.000
    C16      C        0.09810    0.22510    0.28900    1.000
    C17      C        0.48050    0.80220    0.25760    1.000
    C18      C        0.65690    0.92580    0.33490    1.000
    C19      C        0.75200    0.01730    0.78330    1.000
    C20      C        0.97690    0.16440    0.82160    1.000
    C21      C        0.92600    0.14400    0.70650    1.000
    C22      C        0.23920    0.66130    0.70140    1.000
    C23      C        0.50720    0.85750    0.75270    1.000
    C24      C        0.16260    0.61730    0.81380    1.000
    C25      C        0.07940    0.22680    0.87550    1.000
    C26      C        0.26630    0.68320    0.76800    1.000
    C27      C        0.79180    0.05370    0.71980    1.000
    C28      C        0.08020    0.54870    0.60910    1.000
    C29      C        0.96450    0.18700    0.63680    1.000
    C30      C        0.03380    0.52760    0.79270    1.000
    C31      C        0.10980    0.57170    0.68090    1.000
    C32      C        0.00700    0.50670    0.72600    1.000
    C33      C        0.92590    0.45780    0.84160    1.000
    C34      C        0.40190    0.77490    0.78900    1.000
    C35      C        0.01950    0.19780    0.75760    1.000
    C36      C        0.84310    0.07420    0.83490    1.000
    C37      C        0.25200    0.01730    0.71670    1.000
    C38      C        0.47690    0.16440    0.67840    1.000
    C39      C        0.42600    0.14400    0.79350    1.000
    C40      C        0.73920    0.66130    0.79860    1.000
    C41      C        0.00720    0.85750    0.74730    1.000
    C42      C        0.66260    0.61730    0.68620    1.000
    C43      C        0.57940    0.22680    0.62450    1.000
    C44      C        0.76630    0.68320    0.73200    1.000
    C45      C        0.29180    0.05370    0.78020    1.000
    C46      C        0.58020    0.54870    0.89090    1.000
    C47      C        0.46450    0.18700    0.86320    1.000
    C48      C        0.53380    0.52760    0.70730    1.000
    C49      C        0.60980    0.57170    0.81910    1.000
    C50      C        0.50700    0.50670    0.77400    1.000
    C51      C        0.42590    0.45780    0.65840    1.000
    C52      C        0.90190    0.77490    0.71100    1.000
    C53      C        0.51950    0.19780    0.74240    1.000
    C54      C        0.34310    0.07420    0.66510    1.000
    C55      C        0.24800    0.98270    0.21670    1.000
    C56      C        0.02310    0.83560    0.17840    1.000
    C57      C        0.07400    0.85600    0.29350    1.000
    C58      C        0.76080    0.33870    0.29860    1.000
    C59      C        0.49280    0.14250    0.24730    1.000
    C60      C        0.83740    0.38270    0.18620    1.000
    C61      C        0.92060    0.77320    0.12450    1.000
    C62      C        0.73370    0.31680    0.23200    1.000
    C63      C        0.20820    0.94630    0.28020    1.000
    C64      C        0.91980    0.45130    0.39090    1.000
    C65      C        0.03550    0.81300    0.36320    1.000
    C66      C        0.96620    0.47240    0.20730    1.000
    C67      C        0.89020    0.42830    0.31910    1.000
    C68      C        0.99300    0.49330    0.27400    1.000
    C69      C        0.07410    0.54220    0.15840    1.000
    C70      C        0.59810    0.22510    0.21100    1.000
    C71      C        0.98050    0.80220    0.24240    1.000
    C72      C        0.15690    0.92580    0.16510    1.000
    N1       N        0.92900    0.12560    0.35680    1.000
    N2       N        0.05650    0.21360    0.35320    1.000
    N3       N        0.88660    0.07970    0.29570    1.000
    N4       N        0.57100    0.87440    0.85680    1.000
    N5       N        0.44350    0.78640    0.85320    1.000
    N6       N        0.61340    0.92030    0.79570    1.000
    N7       N        0.07100    0.87440    0.64320    1.000
    N8       N        0.94350    0.78640    0.64680    1.000
    N9       N        0.11340    0.92030    0.70430    1.000
    N10      N        0.42900    0.12560    0.14320    1.000
    N11      N        0.55650    0.21360    0.14680    1.000
    N12      N        0.38660    0.07970    0.20430    1.000
    O1       O        0.32160    0.39360    0.07010    1.000
    O2       O        0.68950    0.62170    0.31420    1.000
    O3       O        0.40630    0.76170    0.12000    1.000
    O4       O        0.43880    0.82050    0.43230    1.000
    O5       O        0.31600    0.67410    0.36310    1.000
    O6       O        0.54100    0.52570    0.09170    1.000
    O7       O        0.64110    0.83220    0.09860    1.000
    O8       O        0.55960    0.53010    0.40000    1.000
    O9       O        0.17840    0.60640    0.57010    1.000
    O10      O        0.81050    0.37830    0.81420    1.000
    O11      O        0.09370    0.23830    0.62000    1.000
    O12      O        0.06120    0.17950    0.93230    1.000
    O13      O        0.18400    0.32590    0.86310    1.000
    O14      O        0.95900    0.47430    0.59170    1.000
    O15      O        0.85890    0.16780    0.59860    1.000
    O16      O        0.94040    0.46990    0.90000    1.000
    O17      O        0.67840    0.60640    0.92990    1.000
    O18      O        0.31050    0.37830    0.68580    1.000
    O19      O        0.59370    0.23830    0.88000    1.000
    O20      O        0.56120    0.17950    0.56770    1.000
    O21      O        0.68400    0.32590    0.63690    1.000
    O22      O        0.45900    0.47430    0.90830    1.000
    O23      O        0.35890    0.16780    0.90140    1.000
    O24      O        0.44040    0.46990    0.60000    1.000
    O25      O        0.82160    0.39360    0.42990    1.000
    O26      O        0.18950    0.62170    0.18580    1.000
    O27      O        0.90630    0.76170    0.38000    1.000
    O28      O        0.93880    0.82050    0.06770    1.000
    O29      O        0.81600    0.67410    0.13690    1.000
    O30      O        0.04100    0.52570    0.40830    1.000
    O31      O        0.14110    0.83220    0.40140    1.000
    O32      O        0.05960    0.53010    0.10000    1.000
