# CIF file generated by openbabel 3.1.0, see https://openbabel.org
data_I
_chemical_name_common 'image0'
_cell_length_a 35.1502
_cell_length_b 14.6139
_cell_length_c 31.0655
_cell_angle_alpha 90
_cell_angle_beta 101.3
_cell_angle_gamma 90
_space_group_name_H-M_alt 'P 1'
_space_group_name_Hall 'P 1'
loop_
    _symmetry_equiv_pos_as_xyz
    x,y,z
loop_
    _atom_site_label
    _atom_site_type_symbol
    _atom_site_fract_x
    _atom_site_fract_y
    _atom_site_fract_z
    _atom_site_occupancy
    I1       I        0.26873    0.74622    0.20922    1.000
    I2       I        0.38024    0.75745    0.44071    1.000
    I3       I        0.37546    0.66382    0.30399    1.000
    I4       I        0.47586    0.83608    0.36847    1.000
    I5       I        0.64983    0.60216    0.49265    1.000
    I6       I        0.60799    0.74170    0.60394    1.000
    Zn1      Zn       0.41743    0.86936    0.40257    1.000
    Zn2      Zn       0.33034    0.65213    0.22906    1.000
    Zn3      Zn       0.62618    0.60104    0.56437    1.000
    N1       N        0.36268    0.32750    0.68090    1.000
    N2       N        0.31860    0.51370    0.21990    1.000
    N3       N        0.27930    0.05190    0.22660    1.000
    N4       N        0.43044    0.97910    0.44560    1.000
    N5       N        0.37934    0.93960    0.35380    1.000
    N6       N        0.26675    0.19190    0.18740    1.000
    N7       N        0.57929    0.51330    0.55820    1.000
    N8       N        0.32022    0.17910    0.24730    1.000
    N9       N        0.16773    0.96770    0.10900    1.000
    C1       C        0.34400    0.45480    0.24280    1.000
    H1       H        0.36640    0.47780    0.26050    1.000
    N10      N        0.46025    0.35400    0.58450    1.000
    N11      N        0.42479    0.22110    0.55810    1.000
    C2       C        0.48170    0.33850    0.55410    1.000
    C3       C        0.25960    0.10400    0.19470    1.000
    N12      N        0.47634    0.27140    0.52450    1.000
    C4       C        0.34660    0.90350    0.33110    1.000
    H2       H        0.33930    0.84510    0.33820    1.000
    C5       C        0.22660    0.05850    0.16490    1.000
    C6       C        0.33370    0.03810    0.28710    1.000
    C7       C        0.46300    0.02900    0.44980    1.000
    H3       H        0.48190    0.01100    0.43430    1.000
    C8       C        0.30980    0.09330    0.25160    1.000
    C9       C        0.56430    0.46740    0.52200    1.000
    H4       H        0.57540    0.47460    0.49740    1.000
    C10      C        0.29690    0.22670    0.21600    1.000
    C11      C        0.30490    0.32630    0.21490    1.000
    C12      C        0.32330    0.95070    0.29720    1.000
    H5       H        0.30090    0.92390    0.28140    1.000
    C13      C        0.51540    0.40030    0.55470    1.000
    C14      C        0.40820    0.08170    0.49570    1.000
    H6       H        0.38900    0.09870    0.51090    1.000
    C15      C        0.35070    0.27500    0.64610    1.000
    H7       H        0.32660    0.24680    0.64310    1.000
    C16      C        0.33820    0.36090    0.24130    1.000
    H8       H        0.35630    0.32190    0.25770    1.000
    C17      C        0.56290    0.50190    0.59320    1.000
    H9       H        0.57320    0.53310    0.61890    1.000
    C18      C        0.44790    0.21290    0.52870    1.000
    C19      C        0.53280    0.40950    0.51920    1.000
    H10      H        0.52360    0.37710    0.49350    1.000
    C20      C        0.43180    0.29290    0.58480    1.000
    C21      C        0.28700    0.47940    0.19390    1.000
    H11      H        0.26940    0.51980    0.17770    1.000
    C22      C        0.40340    0.00540    0.46850    1.000
    H12      H        0.38080    0.97110    0.46600    1.000
    C23      C        0.21380    0.97480    0.17590    1.000
    H13      H        0.22500    0.94730    0.20230    1.000
    C24      C        0.38970    0.02340    0.34350    1.000
    H14      H        0.41270    0.04790    0.35910    1.000
    C25      C        0.44220    0.13210    0.49960    1.000
    C26      C        0.17980    0.05020    0.09880    1.000
    H15      H        0.16790    0.07630    0.07230    1.000
    C27      C        0.20880    0.09860    0.12550    1.000
    H16      H        0.21620    0.15620    0.11740    1.000
    C28      C        0.40770    0.30460    0.61810    1.000
    C29      C        0.46980    0.10550    0.47590    1.000
    H17      H        0.49260    0.13870    0.47760    1.000
    C30      C        0.37240    0.26030    0.61410    1.000
    H18      H        0.36350    0.22160    0.59050    1.000
    C31      C        0.36770    0.07510    0.31090    1.000
    H19      H        0.37550    0.13380    0.30500    1.000
    C32      C        0.18440    0.93160    0.14770    1.000
    H20      H        0.17570    0.87530    0.15580    1.000
    C33      C        0.41980    0.35890    0.65420    1.000
    H21      H        0.44350    0.38930    0.65770    1.000
    C34      C        0.39700    0.36830    0.68540    1.000
    H22      H        0.40580    0.40410    0.71010    1.000
    C35      C        0.27930    0.38730    0.19020    1.000
    H23      H        0.25720    0.36610    0.17130    1.000
    C36      C        0.53130    0.44580    0.59270    1.000
    H24      H        0.52090    0.43880    0.61780    1.000
    I7       I        0.76873    0.24622    0.20922    1.000
    I8       I        0.88024    0.25745    0.44071    1.000
    I9       I        0.87546    0.16382    0.30399    1.000
    I10      I        0.97586    0.33608    0.36847    1.000
    I11      I        0.14983    0.10216    0.49265    1.000
    I12      I        0.10799    0.24170    0.60394    1.000
    Zn4      Zn       0.91743    0.36936    0.40257    1.000
    Zn5      Zn       0.83034    0.15213    0.22906    1.000
    Zn6      Zn       0.12618    0.10104    0.56437    1.000
    N13      N        0.86268    0.82750    0.68090    1.000
    N14      N        0.81860    0.01370    0.21990    1.000
    N15      N        0.77930    0.55190    0.22660    1.000
    N16      N        0.93044    0.47910    0.44560    1.000
    N17      N        0.87934    0.43960    0.35380    1.000
    N18      N        0.76675    0.69190    0.18740    1.000
    N19      N        0.07929    0.01330    0.55820    1.000
    N20      N        0.82022    0.67910    0.24730    1.000
    N21      N        0.66773    0.46770    0.10900    1.000
    C37      C        0.84400    0.95480    0.24280    1.000
    H25      H        0.86640    0.97780    0.26050    1.000
    N22      N        0.96025    0.85400    0.58450    1.000
    N23      N        0.92479    0.72110    0.55810    1.000
    C38      C        0.98170    0.83850    0.55410    1.000
    C39      C        0.75960    0.60400    0.19470    1.000
    N24      N        0.97634    0.77140    0.52450    1.000
    C40      C        0.84660    0.40350    0.33110    1.000
    H26      H        0.83930    0.34510    0.33820    1.000
    C41      C        0.72660    0.55850    0.16490    1.000
    C42      C        0.83370    0.53810    0.28710    1.000
    C43      C        0.96300    0.52900    0.44980    1.000
    H27      H        0.98190    0.51100    0.43430    1.000
    C44      C        0.80980    0.59330    0.25160    1.000
    C45      C        0.06430    0.96740    0.52200    1.000
    H28      H        0.07540    0.97460    0.49740    1.000
    C46      C        0.79690    0.72670    0.21600    1.000
    C47      C        0.80490    0.82630    0.21490    1.000
    C48      C        0.82330    0.45070    0.29720    1.000
    H29      H        0.80090    0.42390    0.28140    1.000
    C49      C        0.01540    0.90030    0.55470    1.000
    C50      C        0.90820    0.58170    0.49570    1.000
    H30      H        0.88900    0.59870    0.51090    1.000
    C51      C        0.85070    0.77500    0.64610    1.000
    H31      H        0.82660    0.74680    0.64310    1.000
    C52      C        0.83820    0.86090    0.24130    1.000
    H32      H        0.85630    0.82190    0.25770    1.000
    C53      C        0.06290    0.00190    0.59320    1.000
    H33      H        0.07320    0.03310    0.61890    1.000
    C54      C        0.94790    0.71290    0.52870    1.000
    C55      C        0.03280    0.90950    0.51920    1.000
    H34      H        0.02360    0.87710    0.49350    1.000
    C56      C        0.93180    0.79290    0.58480    1.000
    C57      C        0.78700    0.97940    0.19390    1.000
    H35      H        0.76940    0.01980    0.17770    1.000
    C58      C        0.90340    0.50540    0.46850    1.000
    H36      H        0.88080    0.47110    0.46600    1.000
    C59      C        0.71380    0.47480    0.17590    1.000
    H37      H        0.72500    0.44730    0.20230    1.000
    C60      C        0.88970    0.52340    0.34350    1.000
    H38      H        0.91270    0.54790    0.35910    1.000
    C61      C        0.94220    0.63210    0.49960    1.000
    C62      C        0.67980    0.55020    0.09880    1.000
    H39      H        0.66790    0.57630    0.07230    1.000
    C63      C        0.70880    0.59860    0.12550    1.000
    H40      H        0.71620    0.65620    0.11740    1.000
    C64      C        0.90770    0.80460    0.61810    1.000
    C65      C        0.96980    0.60550    0.47590    1.000
    H41      H        0.99260    0.63870    0.47760    1.000
    C66      C        0.87240    0.76030    0.61410    1.000
    H42      H        0.86350    0.72160    0.59050    1.000
    C67      C        0.86770    0.57510    0.31090    1.000
    H43      H        0.87550    0.63380    0.30500    1.000
    C68      C        0.68440    0.43160    0.14770    1.000
    H44      H        0.67570    0.37530    0.15580    1.000
    C69      C        0.91980    0.85890    0.65420    1.000
    H45      H        0.94350    0.88930    0.65770    1.000
    C70      C        0.89700    0.86830    0.68540    1.000
    H46      H        0.90580    0.90410    0.71010    1.000
    C71      C        0.77930    0.88730    0.19020    1.000
    H47      H        0.75720    0.86610    0.17130    1.000
    C72      C        0.03130    0.94580    0.59270    1.000
    H48      H        0.02090    0.93880    0.61780    1.000
    I13      I        0.26873    0.25378    0.70922    1.000
    I14      I        0.38024    0.24255    0.94071    1.000
    I15      I        0.37546    0.33618    0.80399    1.000
    I16      I        0.47586    0.16392    0.86847    1.000
    I17      I        0.64983    0.39784    0.99265    1.000
    I18      I        0.60799    0.25830    0.10394    1.000
    Zn7      Zn       0.41743    0.13064    0.90257    1.000
    Zn8      Zn       0.33034    0.34787    0.72906    1.000
    Zn9      Zn       0.62618    0.39896    0.06437    1.000
    N25      N        0.36268    0.67250    0.18090    1.000
    N26      N        0.31860    0.48630    0.71990    1.000
    N27      N        0.27930    0.94810    0.72660    1.000
    N28      N        0.43044    0.02090    0.94560    1.000
    N29      N        0.37934    0.06040    0.85380    1.000
    N30      N        0.26675    0.80810    0.68740    1.000
    N31      N        0.57929    0.48670    0.05820    1.000
    N32      N        0.32022    0.82090    0.74730    1.000
    N33      N        0.16773    0.03230    0.60900    1.000
    C73      C        0.34400    0.54520    0.74280    1.000
    H49      H        0.36640    0.52220    0.76050    1.000
    N34      N        0.46025    0.64600    0.08450    1.000
    N35      N        0.42479    0.77890    0.05810    1.000
    C74      C        0.48170    0.66150    0.05410    1.000
    C75      C        0.25960    0.89600    0.69470    1.000
    N36      N        0.47634    0.72860    0.02450    1.000
    C76      C        0.34660    0.09650    0.83110    1.000
    H50      H        0.33930    0.15490    0.83820    1.000
    C77      C        0.22660    0.94150    0.66490    1.000
    C78      C        0.33370    0.96190    0.78710    1.000
    C79      C        0.46300    0.97100    0.94980    1.000
    H51      H        0.48190    0.98900    0.93430    1.000
    C80      C        0.30980    0.90670    0.75160    1.000
    C81      C        0.56430    0.53260    0.02200    1.000
    H52      H        0.57540    0.52540    0.99740    1.000
    C82      C        0.29690    0.77330    0.71600    1.000
    C83      C        0.30490    0.67370    0.71490    1.000
    C84      C        0.32330    0.04930    0.79720    1.000
    H53      H        0.30090    0.07610    0.78140    1.000
    C85      C        0.51540    0.59970    0.05470    1.000
    C86      C        0.40820    0.91830    0.99570    1.000
    H54      H        0.38900    0.90130    0.01090    1.000
    C87      C        0.35070    0.72500    0.14610    1.000
    H55      H        0.32660    0.75320    0.14310    1.000
    C88      C        0.33820    0.63910    0.74130    1.000
    H56      H        0.35630    0.67810    0.75770    1.000
    C89      C        0.56290    0.49810    0.09320    1.000
    H57      H        0.57320    0.46690    0.11890    1.000
    C90      C        0.44790    0.78710    0.02870    1.000
    C91      C        0.53280    0.59050    0.01920    1.000
    H58      H        0.52360    0.62290    0.99350    1.000
    C92      C        0.43180    0.70710    0.08480    1.000
    C93      C        0.28700    0.52060    0.69390    1.000
    H59      H        0.26940    0.48020    0.67770    1.000
    C94      C        0.40340    0.99460    0.96850    1.000
    H60      H        0.38080    0.02890    0.96600    1.000
    C95      C        0.21380    0.02520    0.67590    1.000
    H61      H        0.22500    0.05270    0.70230    1.000
    C96      C        0.38970    0.97660    0.84350    1.000
    H62      H        0.41270    0.95210    0.85910    1.000
    C97      C        0.44220    0.86790    0.99960    1.000
    C98      C        0.17980    0.94980    0.59880    1.000
    H63      H        0.16790    0.92370    0.57230    1.000
    C99      C        0.20880    0.90140    0.62550    1.000
    H64      H        0.21620    0.84380    0.61740    1.000
    C100     C        0.40770    0.69540    0.11810    1.000
    C101     C        0.46980    0.89450    0.97590    1.000
    H65      H        0.49260    0.86130    0.97760    1.000
    C102     C        0.37240    0.73970    0.11410    1.000
    H66      H        0.36350    0.77840    0.09050    1.000
    C103     C        0.36770    0.92490    0.81090    1.000
    H67      H        0.37550    0.86620    0.80500    1.000
    C104     C        0.18440    0.06840    0.64770    1.000
    H68      H        0.17570    0.12470    0.65580    1.000
    C105     C        0.41980    0.64110    0.15420    1.000
    H69      H        0.44350    0.61070    0.15770    1.000
    C106     C        0.39700    0.63170    0.18540    1.000
    H70      H        0.40580    0.59590    0.21010    1.000
    C107     C        0.27930    0.61270    0.69020    1.000
    H71      H        0.25720    0.63390    0.67130    1.000
    C108     C        0.53130    0.55420    0.09270    1.000
    H72      H        0.52090    0.56120    0.11780    1.000
    I19      I        0.76873    0.75378    0.70922    1.000
    I20      I        0.88024    0.74255    0.94071    1.000
    I21      I        0.87546    0.83618    0.80399    1.000
    I22      I        0.97586    0.66392    0.86847    1.000
    I23      I        0.14983    0.89784    0.99265    1.000
    I24      I        0.10799    0.75830    0.10394    1.000
    Zn10     Zn       0.91743    0.63064    0.90257    1.000
    Zn11     Zn       0.83034    0.84787    0.72906    1.000
    Zn12     Zn       0.12618    0.89896    0.06437    1.000
    N37      N        0.86268    0.17250    0.18090    1.000
    N38      N        0.81860    0.98630    0.71990    1.000
    N39      N        0.77930    0.44810    0.72660    1.000
    N40      N        0.93044    0.52090    0.94560    1.000
    N41      N        0.87934    0.56040    0.85380    1.000
    N42      N        0.76675    0.30810    0.68740    1.000
    N43      N        0.07929    0.98670    0.05820    1.000
    N44      N        0.82022    0.32090    0.74730    1.000
    N45      N        0.66773    0.53230    0.60900    1.000
    C109     C        0.84400    0.04520    0.74280    1.000
    H73      H        0.86640    0.02220    0.76050    1.000
    N46      N        0.96025    0.14600    0.08450    1.000
    N47      N        0.92479    0.27890    0.05810    1.000
    C110     C        0.98170    0.16150    0.05410    1.000
    C111     C        0.75960    0.39600    0.69470    1.000
    N48      N        0.97634    0.22860    0.02450    1.000
    C112     C        0.84660    0.59650    0.83110    1.000
    H74      H        0.83930    0.65490    0.83820    1.000
    C113     C        0.72660    0.44150    0.66490    1.000
    C114     C        0.83370    0.46190    0.78710    1.000
    C115     C        0.96300    0.47100    0.94980    1.000
    H75      H        0.98190    0.48900    0.93430    1.000
    C116     C        0.80980    0.40670    0.75160    1.000
    C117     C        0.06430    0.03260    0.02200    1.000
    H76      H        0.07540    0.02540    0.99740    1.000
    C118     C        0.79690    0.27330    0.71600    1.000
    C119     C        0.80490    0.17370    0.71490    1.000
    C120     C        0.82330    0.54930    0.79720    1.000
    H77      H        0.80090    0.57610    0.78140    1.000
    C121     C        0.01540    0.09970    0.05470    1.000
    C122     C        0.90820    0.41830    0.99570    1.000
    H78      H        0.88900    0.40130    0.01090    1.000
    C123     C        0.85070    0.22500    0.14610    1.000
    H79      H        0.82660    0.25320    0.14310    1.000
    C124     C        0.83820    0.13910    0.74130    1.000
    H80      H        0.85630    0.17810    0.75770    1.000
    C125     C        0.06290    0.99810    0.09320    1.000
    H81      H        0.07320    0.96690    0.11890    1.000
    C126     C        0.94790    0.28710    0.02870    1.000
    C127     C        0.03280    0.09050    0.01920    1.000
    H82      H        0.02360    0.12290    0.99350    1.000
    C128     C        0.93180    0.20710    0.08480    1.000
    C129     C        0.78700    0.02060    0.69390    1.000
    H83      H        0.76940    0.98020    0.67770    1.000
    C130     C        0.90340    0.49460    0.96850    1.000
    H84      H        0.88080    0.52890    0.96600    1.000
    C131     C        0.71380    0.52520    0.67590    1.000
    H85      H        0.72500    0.55270    0.70230    1.000
    C132     C        0.88970    0.47660    0.84350    1.000
    H86      H        0.91270    0.45210    0.85910    1.000
    C133     C        0.94220    0.36790    0.99960    1.000
    C134     C        0.67980    0.44980    0.59880    1.000
    H87      H        0.66790    0.42370    0.57230    1.000
    C135     C        0.70880    0.40140    0.62550    1.000
    H88      H        0.71620    0.34380    0.61740    1.000
    C136     C        0.90770    0.19540    0.11810    1.000
    C137     C        0.96980    0.39450    0.97590    1.000
    H89      H        0.99260    0.36130    0.97760    1.000
    C138     C        0.87240    0.23970    0.11410    1.000
    H90      H        0.86350    0.27840    0.09050    1.000
    C139     C        0.86770    0.42490    0.81090    1.000
    H91      H        0.87550    0.36620    0.80500    1.000
    C140     C        0.68440    0.56840    0.64770    1.000
    H92      H        0.67570    0.62470    0.65580    1.000
    C141     C        0.91980    0.14110    0.15420    1.000
    H93      H        0.94350    0.11070    0.15770    1.000
    C142     C        0.89700    0.13170    0.18540    1.000
    H94      H        0.90580    0.09590    0.21010    1.000
    C143     C        0.77930    0.11270    0.69020    1.000
    H95      H        0.75720    0.13390    0.67130    1.000
    C144     C        0.03130    0.05420    0.09270    1.000
    H96      H        0.02090    0.06120    0.11780    1.000
    I25      I        0.73127    0.74622    0.29078    1.000
    I26      I        0.61976    0.75745    0.05929    1.000
    I27      I        0.62454    0.66382    0.19601    1.000
    I28      I        0.52414    0.83608    0.13153    1.000
    I29      I        0.35017    0.60216    0.00735    1.000
    I30      I        0.39201    0.74170    0.89606    1.000
    Zn13     Zn       0.58257    0.86936    0.09743    1.000
    Zn14     Zn       0.66966    0.65213    0.27094    1.000
    Zn15     Zn       0.37382    0.60104    0.93563    1.000
    N49      N        0.63732    0.32750    0.81910    1.000
    N50      N        0.68140    0.51370    0.28010    1.000
    N51      N        0.72070    0.05190    0.27340    1.000
    N52      N        0.56956    0.97910    0.05440    1.000
    N53      N        0.62066    0.93960    0.14620    1.000
    N54      N        0.73325    0.19190    0.31260    1.000
    N55      N        0.42071    0.51330    0.94180    1.000
    N56      N        0.67978    0.17910    0.25270    1.000
    N57      N        0.83227    0.96770    0.39100    1.000
    C145     C        0.65600    0.45480    0.25720    1.000
    H97      H        0.63360    0.47780    0.23950    1.000
    N58      N        0.53975    0.35400    0.91550    1.000
    N59      N        0.57521    0.22110    0.94190    1.000
    C146     C        0.51830    0.33850    0.94590    1.000
    C147     C        0.74040    0.10400    0.30530    1.000
    N60      N        0.52366    0.27140    0.97550    1.000
    C148     C        0.65340    0.90350    0.16890    1.000
    H98      H        0.66070    0.84510    0.16180    1.000
    C149     C        0.77340    0.05850    0.33510    1.000
    C150     C        0.66630    0.03810    0.21290    1.000
    C151     C        0.53700    0.02900    0.05020    1.000
    H99      H        0.51810    0.01100    0.06570    1.000
    C152     C        0.69020    0.09330    0.24840    1.000
    C153     C        0.43570    0.46740    0.97800    1.000
    H100     H        0.42460    0.47460    0.00260    1.000
    C154     C        0.70310    0.22670    0.28400    1.000
    C155     C        0.69510    0.32630    0.28510    1.000
    C156     C        0.67670    0.95070    0.20280    1.000
    H101     H        0.69910    0.92390    0.21860    1.000
    C157     C        0.48460    0.40030    0.94530    1.000
    C158     C        0.59180    0.08170    0.00430    1.000
    H102     H        0.61100    0.09870    0.98910    1.000
    C159     C        0.64930    0.27500    0.85390    1.000
    H103     H        0.67340    0.24680    0.85690    1.000
    C160     C        0.66180    0.36090    0.25870    1.000
    H104     H        0.64370    0.32190    0.24230    1.000
    C161     C        0.43710    0.50190    0.90680    1.000
    H105     H        0.42680    0.53310    0.88110    1.000
    C162     C        0.55210    0.21290    0.97130    1.000
    C163     C        0.46720    0.40950    0.98080    1.000
    H106     H        0.47640    0.37710    0.00650    1.000
    C164     C        0.56820    0.29290    0.91520    1.000
    C165     C        0.71300    0.47940    0.30610    1.000
    H107     H        0.73060    0.51980    0.32230    1.000
    C166     C        0.59660    0.00540    0.03150    1.000
    H108     H        0.61920    0.97110    0.03400    1.000
    C167     C        0.78620    0.97480    0.32410    1.000
    H109     H        0.77500    0.94730    0.29770    1.000
    C168     C        0.61030    0.02340    0.15650    1.000
    H110     H        0.58730    0.04790    0.14090    1.000
    C169     C        0.55780    0.13210    0.00040    1.000
    C170     C        0.82020    0.05020    0.40120    1.000
    H111     H        0.83210    0.07630    0.42770    1.000
    C171     C        0.79120    0.09860    0.37450    1.000
    H112     H        0.78380    0.15620    0.38260    1.000
    C172     C        0.59230    0.30460    0.88190    1.000
    C173     C        0.53020    0.10550    0.02410    1.000
    H113     H        0.50740    0.13870    0.02240    1.000
    C174     C        0.62760    0.26030    0.88590    1.000
    H114     H        0.63650    0.22160    0.90950    1.000
    C175     C        0.63230    0.07510    0.18910    1.000
    H115     H        0.62450    0.13380    0.19500    1.000
    C176     C        0.81560    0.93160    0.35230    1.000
    H116     H        0.82430    0.87530    0.34420    1.000
    C177     C        0.58020    0.35890    0.84580    1.000
    H117     H        0.55650    0.38930    0.84230    1.000
    C178     C        0.60300    0.36830    0.81460    1.000
    H118     H        0.59420    0.40410    0.78990    1.000
    C179     C        0.72070    0.38730    0.30980    1.000
    H119     H        0.74280    0.36610    0.32870    1.000
    C180     C        0.46870    0.44580    0.90730    1.000
    H120     H        0.47910    0.43880    0.88220    1.000
    I31      I        0.23127    0.24622    0.29078    1.000
    I32      I        0.11976    0.25745    0.05929    1.000
    I33      I        0.12454    0.16382    0.19601    1.000
    I34      I        0.02414    0.33608    0.13153    1.000
    I35      I        0.85017    0.10216    0.00735    1.000
    I36      I        0.89201    0.24170    0.89606    1.000
    Zn16     Zn       0.08257    0.36936    0.09743    1.000
    Zn17     Zn       0.16966    0.15213    0.27094    1.000
    Zn18     Zn       0.87382    0.10104    0.93563    1.000
    N61      N        0.13732    0.82750    0.81910    1.000
    N62      N        0.18140    0.01370    0.28010    1.000
    N63      N        0.22070    0.55190    0.27340    1.000
    N64      N        0.06956    0.47910    0.05440    1.000
    N65      N        0.12066    0.43960    0.14620    1.000
    N66      N        0.23325    0.69190    0.31260    1.000
    N67      N        0.92071    0.01330    0.94180    1.000
    N68      N        0.17978    0.67910    0.25270    1.000
    N69      N        0.33227    0.46770    0.39100    1.000
    C181     C        0.15600    0.95480    0.25720    1.000
    H121     H        0.13360    0.97780    0.23950    1.000
    N70      N        0.03975    0.85400    0.91550    1.000
    N71      N        0.07521    0.72110    0.94190    1.000
    C182     C        0.01830    0.83850    0.94590    1.000
    C183     C        0.24040    0.60400    0.30530    1.000
    N72      N        0.02366    0.77140    0.97550    1.000
    C184     C        0.15340    0.40350    0.16890    1.000
    H122     H        0.16070    0.34510    0.16180    1.000
    C185     C        0.27340    0.55850    0.33510    1.000
    C186     C        0.16630    0.53810    0.21290    1.000
    C187     C        0.03700    0.52900    0.05020    1.000
    H123     H        0.01810    0.51100    0.06570    1.000
    C188     C        0.19020    0.59330    0.24840    1.000
    C189     C        0.93570    0.96740    0.97800    1.000
    H124     H        0.92460    0.97460    0.00260    1.000
    C190     C        0.20310    0.72670    0.28400    1.000
    C191     C        0.19510    0.82630    0.28510    1.000
    C192     C        0.17670    0.45070    0.20280    1.000
    H125     H        0.19910    0.42390    0.21860    1.000
    C193     C        0.98460    0.90030    0.94530    1.000
    C194     C        0.09180    0.58170    0.00430    1.000
    H126     H        0.11100    0.59870    0.98910    1.000
    C195     C        0.14930    0.77500    0.85390    1.000
    H127     H        0.17340    0.74680    0.85690    1.000
    C196     C        0.16180    0.86090    0.25870    1.000
    H128     H        0.14370    0.82190    0.24230    1.000
    C197     C        0.93710    0.00190    0.90680    1.000
    H129     H        0.92680    0.03310    0.88110    1.000
    C198     C        0.05210    0.71290    0.97130    1.000
    C199     C        0.96720    0.90950    0.98080    1.000
    H130     H        0.97640    0.87710    0.00650    1.000
    C200     C        0.06820    0.79290    0.91520    1.000
    C201     C        0.21300    0.97940    0.30610    1.000
    H131     H        0.23060    0.01980    0.32230    1.000
    C202     C        0.09660    0.50540    0.03150    1.000
    H132     H        0.11920    0.47110    0.03400    1.000
    C203     C        0.28620    0.47480    0.32410    1.000
    H133     H        0.27500    0.44730    0.29770    1.000
    C204     C        0.11030    0.52340    0.15650    1.000
    H134     H        0.08730    0.54790    0.14090    1.000
    C205     C        0.05780    0.63210    0.00040    1.000
    C206     C        0.32020    0.55020    0.40120    1.000
    H135     H        0.33210    0.57630    0.42770    1.000
    C207     C        0.29120    0.59860    0.37450    1.000
    H136     H        0.28380    0.65620    0.38260    1.000
    C208     C        0.09230    0.80460    0.88190    1.000
    C209     C        0.03020    0.60550    0.02410    1.000
    H137     H        0.00740    0.63870    0.02240    1.000
    C210     C        0.12760    0.76030    0.88590    1.000
    H138     H        0.13650    0.72160    0.90950    1.000
    C211     C        0.13230    0.57510    0.18910    1.000
    H139     H        0.12450    0.63380    0.19500    1.000
    C212     C        0.31560    0.43160    0.35230    1.000
    H140     H        0.32430    0.37530    0.34420    1.000
    C213     C        0.08020    0.85890    0.84580    1.000
    H141     H        0.05650    0.88930    0.84230    1.000
    C214     C        0.10300    0.86830    0.81460    1.000
    H142     H        0.09420    0.90410    0.78990    1.000
    C215     C        0.22070    0.88730    0.30980    1.000
    H143     H        0.24280    0.86610    0.32870    1.000
    C216     C        0.96870    0.94580    0.90730    1.000
    H144     H        0.97910    0.93880    0.88220    1.000
    I37      I        0.73127    0.25378    0.79078    1.000
    I38      I        0.61976    0.24255    0.55929    1.000
    I39      I        0.62454    0.33618    0.69601    1.000
    I40      I        0.52414    0.16392    0.63153    1.000
    I41      I        0.35017    0.39784    0.50735    1.000
    I42      I        0.39201    0.25830    0.39606    1.000
    Zn19     Zn       0.58257    0.13064    0.59743    1.000
    Zn20     Zn       0.66966    0.34787    0.77094    1.000
    Zn21     Zn       0.37382    0.39896    0.43563    1.000
    N73      N        0.63732    0.67250    0.31910    1.000
    N74      N        0.68140    0.48630    0.78010    1.000
    N75      N        0.72070    0.94810    0.77340    1.000
    N76      N        0.56956    0.02090    0.55440    1.000
    N77      N        0.62066    0.06040    0.64620    1.000
    N78      N        0.73325    0.80810    0.81260    1.000
    N79      N        0.42071    0.48670    0.44180    1.000
    N80      N        0.67978    0.82090    0.75270    1.000
    N81      N        0.83227    0.03230    0.89100    1.000
    C217     C        0.65600    0.54520    0.75720    1.000
    H145     H        0.63360    0.52220    0.73950    1.000
    N82      N        0.53975    0.64600    0.41550    1.000
    N83      N        0.57521    0.77890    0.44190    1.000
    C218     C        0.51830    0.66150    0.44590    1.000
    C219     C        0.74040    0.89600    0.80530    1.000
    N84      N        0.52366    0.72860    0.47550    1.000
    C220     C        0.65340    0.09650    0.66890    1.000
    H146     H        0.66070    0.15490    0.66180    1.000
    C221     C        0.77340    0.94150    0.83510    1.000
    C222     C        0.66630    0.96190    0.71290    1.000
    C223     C        0.53700    0.97100    0.55020    1.000
    H147     H        0.51810    0.98900    0.56570    1.000
    C224     C        0.69020    0.90670    0.74840    1.000
    C225     C        0.43570    0.53260    0.47800    1.000
    H148     H        0.42460    0.52540    0.50260    1.000
    C226     C        0.70310    0.77330    0.78400    1.000
    C227     C        0.69510    0.67370    0.78510    1.000
    C228     C        0.67670    0.04930    0.70280    1.000
    H149     H        0.69910    0.07610    0.71860    1.000
    C229     C        0.48460    0.59970    0.44530    1.000
    C230     C        0.59180    0.91830    0.50430    1.000
    H150     H        0.61100    0.90130    0.48910    1.000
    C231     C        0.64930    0.72500    0.35390    1.000
    H151     H        0.67340    0.75320    0.35690    1.000
    C232     C        0.66180    0.63910    0.75870    1.000
    H152     H        0.64370    0.67810    0.74230    1.000
    C233     C        0.43710    0.49810    0.40680    1.000
    H153     H        0.42680    0.46690    0.38110    1.000
    C234     C        0.55210    0.78710    0.47130    1.000
    C235     C        0.46720    0.59050    0.48080    1.000
    H154     H        0.47640    0.62290    0.50650    1.000
    C236     C        0.56820    0.70710    0.41520    1.000
    C237     C        0.71300    0.52060    0.80610    1.000
    H155     H        0.73060    0.48020    0.82230    1.000
    C238     C        0.59660    0.99460    0.53150    1.000
    H156     H        0.61920    0.02890    0.53400    1.000
    C239     C        0.78620    0.02520    0.82410    1.000
    H157     H        0.77500    0.05270    0.79770    1.000
    C240     C        0.61030    0.97660    0.65650    1.000
    H158     H        0.58730    0.95210    0.64090    1.000
    C241     C        0.55780    0.86790    0.50040    1.000
    C242     C        0.82020    0.94980    0.90120    1.000
    H159     H        0.83210    0.92370    0.92770    1.000
    C243     C        0.79120    0.90140    0.87450    1.000
    H160     H        0.78380    0.84380    0.88260    1.000
    C244     C        0.59230    0.69540    0.38190    1.000
    C245     C        0.53020    0.89450    0.52410    1.000
    H161     H        0.50740    0.86130    0.52240    1.000
    C246     C        0.62760    0.73970    0.38590    1.000
    H162     H        0.63650    0.77840    0.40950    1.000
    C247     C        0.63230    0.92490    0.68910    1.000
    H163     H        0.62450    0.86620    0.69500    1.000
    C248     C        0.81560    0.06840    0.85230    1.000
    H164     H        0.82430    0.12470    0.84420    1.000
    C249     C        0.58020    0.64110    0.34580    1.000
    H165     H        0.55650    0.61070    0.34230    1.000
    C250     C        0.60300    0.63170    0.31460    1.000
    H166     H        0.59420    0.59590    0.28990    1.000
    C251     C        0.72070    0.61270    0.80980    1.000
    H167     H        0.74280    0.63390    0.82870    1.000
    C252     C        0.46870    0.55420    0.40730    1.000
    H168     H        0.47910    0.56120    0.38220    1.000
    I43      I        0.23127    0.75378    0.79078    1.000
    I44      I        0.11976    0.74255    0.55929    1.000
    I45      I        0.12454    0.83618    0.69601    1.000
    I46      I        0.02414    0.66392    0.63153    1.000
    I47      I        0.85017    0.89784    0.50735    1.000
    I48      I        0.89201    0.75830    0.39606    1.000
    Zn22     Zn       0.08257    0.63064    0.59743    1.000
    Zn23     Zn       0.16966    0.84787    0.77094    1.000
    Zn24     Zn       0.87382    0.89896    0.43563    1.000
    N85      N        0.13732    0.17250    0.31910    1.000
    N86      N        0.18140    0.98630    0.78010    1.000
    N87      N        0.22070    0.44810    0.77340    1.000
    N88      N        0.06956    0.52090    0.55440    1.000
    N89      N        0.12066    0.56040    0.64620    1.000
    N90      N        0.23325    0.30810    0.81260    1.000
    N91      N        0.92071    0.98670    0.44180    1.000
    N92      N        0.17978    0.32090    0.75270    1.000
    N93      N        0.33227    0.53230    0.89100    1.000
    C253     C        0.15600    0.04520    0.75720    1.000
    H169     H        0.13360    0.02220    0.73950    1.000
    N94      N        0.03975    0.14600    0.41550    1.000
    N95      N        0.07521    0.27890    0.44190    1.000
    C254     C        0.01830    0.16150    0.44590    1.000
    C255     C        0.24040    0.39600    0.80530    1.000
    N96      N        0.02366    0.22860    0.47550    1.000
    C256     C        0.15340    0.59650    0.66890    1.000
    H170     H        0.16070    0.65490    0.66180    1.000
    C257     C        0.27340    0.44150    0.83510    1.000
    C258     C        0.16630    0.46190    0.71290    1.000
    C259     C        0.03700    0.47100    0.55020    1.000
    H171     H        0.01810    0.48900    0.56570    1.000
    C260     C        0.19020    0.40670    0.74840    1.000
    C261     C        0.93570    0.03260    0.47800    1.000
    H172     H        0.92460    0.02540    0.50260    1.000
    C262     C        0.20310    0.27330    0.78400    1.000
    C263     C        0.19510    0.17370    0.78510    1.000
    C264     C        0.17670    0.54930    0.70280    1.000
    H173     H        0.19910    0.57610    0.71860    1.000
    C265     C        0.98460    0.09970    0.44530    1.000
    C266     C        0.09180    0.41830    0.50430    1.000
    H174     H        0.11100    0.40130    0.48910    1.000
    C267     C        0.14930    0.22500    0.35390    1.000
    H175     H        0.17340    0.25320    0.35690    1.000
    C268     C        0.16180    0.13910    0.75870    1.000
    H176     H        0.14370    0.17810    0.74230    1.000
    C269     C        0.93710    0.99810    0.40680    1.000
    H177     H        0.92680    0.96690    0.38110    1.000
    C270     C        0.05210    0.28710    0.47130    1.000
    C271     C        0.96720    0.09050    0.48080    1.000
    H178     H        0.97640    0.12290    0.50650    1.000
    C272     C        0.06820    0.20710    0.41520    1.000
    C273     C        0.21300    0.02060    0.80610    1.000
    H179     H        0.23060    0.98020    0.82230    1.000
    C274     C        0.09660    0.49460    0.53150    1.000
    H180     H        0.11920    0.52890    0.53400    1.000
    C275     C        0.28620    0.52520    0.82410    1.000
    H181     H        0.27500    0.55270    0.79770    1.000
    C276     C        0.11030    0.47660    0.65650    1.000
    H182     H        0.08730    0.45210    0.64090    1.000
    C277     C        0.05780    0.36790    0.50040    1.000
    C278     C        0.32020    0.44980    0.90120    1.000
    H183     H        0.33210    0.42370    0.92770    1.000
    C279     C        0.29120    0.40140    0.87450    1.000
    H184     H        0.28380    0.34380    0.88260    1.000
    C280     C        0.09230    0.19540    0.38190    1.000
    C281     C        0.03020    0.39450    0.52410    1.000
    H185     H        0.00740    0.36130    0.52240    1.000
    C282     C        0.12760    0.23970    0.38590    1.000
    H186     H        0.13650    0.27840    0.40950    1.000
    C283     C        0.13230    0.42490    0.68910    1.000
    H187     H        0.12450    0.36620    0.69500    1.000
    C284     C        0.31560    0.56840    0.85230    1.000
    H188     H        0.32430    0.62470    0.84420    1.000
    C285     C        0.08020    0.14110    0.34580    1.000
    H189     H        0.05650    0.11070    0.34230    1.000
    C286     C        0.10300    0.13170    0.31460    1.000
    H190     H        0.09420    0.09590    0.28990    1.000
    C287     C        0.22070    0.11270    0.80980    1.000
    H191     H        0.24280    0.13390    0.82870    1.000
    C288     C        0.96870    0.05420    0.40730    1.000
    H192     H        0.97910    0.06120    0.38220    1.000
