# CIF file generated by openbabel 3.1.0, see https://openbabel.org
data_I
_chemical_name_common 'image0'
_cell_length_a 26.084
_cell_length_b 26.084
_cell_length_c 19.4082
_cell_angle_alpha 90
_cell_angle_beta 90
_cell_angle_gamma 120
_space_group_name_H-M_alt 'P 1'
_space_group_name_Hall 'P 1'
loop_
    _symmetry_equiv_pos_as_xyz
    x,y,z
loop_
    _atom_site_label
    _atom_site_type_symbol
    _atom_site_fract_x
    _atom_site_fract_y
    _atom_site_fract_z
    _atom_site_occupancy
    Zn1      Zn       0.43519    0.33203    0.40422    1.000
    N1       N        0.37840    0.33490    0.47690    1.000
    N2       N        0.37310    0.34170    0.45080    1.000
    C1       C        0.31760    0.29530    0.47590    1.000
    C2       C        0.22860    0.20500    0.47450    1.000
    H1       H        0.20480    0.16580    0.45750    1.000
    C3       C        0.28460    0.23920    0.45160    1.000
    H2       H        0.30080    0.22420    0.41890    1.000
    Cl1      Cl       0.17840    0.13480    0.45600    1.000
    Cl2      Cl       0.16060    0.16140    0.39700    1.000
    N3       N        0.51560    0.39830    0.42970    1.000
    O1       O        0.46720    0.45230    0.37700    1.000
    O2       O        0.47550    0.44190    0.31600    1.000
    C4       C        0.53000    0.40600    0.50800    1.000
    H3       H        0.50800    0.38130    0.54570    1.000
    C5       C        0.55650    0.38840    0.46690    1.000
    H4       H        0.54900    0.35240    0.48780    1.000
    N4       N        0.40560    0.32230    0.30900    1.000
    O3       O        0.50990    0.32500    0.30520    1.000
    C6       C        0.35640    0.32180    0.28660    1.000
    H5       H        0.32670    0.32150    0.31510    1.000
    N5       N        0.43130    0.25890    0.43960    1.000
    C7       C        0.42520    0.23930    0.50590    1.000
    C8       C        0.42180    0.23530    0.62580    1.000
    H6       H        0.42430    0.25300    0.66940    1.000
    C9       C        0.41830    0.26660    0.56490    1.000
    H7       H        0.41250    0.29980    0.56510    1.000
    Cl3      Cl       0.40550    0.27930    0.69760    1.000
    Zn2      Zn       0.66797    0.10316    0.40422    1.000
    N6       N        0.66510    0.04350    0.47690    1.000
    N7       N        0.65830    0.03140    0.45080    1.000
    C10      C        0.70470    0.02230    0.47590    1.000
    C11      C        0.79500    0.02360    0.47450    1.000
    H8       H        0.83420    0.03900    0.45750    1.000
    C12      C        0.76080    0.04540    0.45160    1.000
    H9       H        0.77580    0.07660    0.41890    1.000
    Cl4      Cl       0.86520    0.04360    0.45600    1.000
    Cl5      Cl       0.83860    0.99920    0.39700    1.000
    N8       N        0.60170    0.11730    0.42970    1.000
    O4       O        0.54770    0.01490    0.37700    1.000
    O5       O        0.55810    0.03360    0.31600    1.000
    C13      C        0.59400    0.12400    0.50800    1.000
    H10      H        0.61870    0.12670    0.54570    1.000
    C14      C        0.61160    0.16810    0.46690    1.000
    H11      H        0.64760    0.19660    0.48780    1.000
    N9       N        0.67770    0.08330    0.30900    1.000
    O6       O        0.67500    0.18490    0.30520    1.000
    C15      C        0.67820    0.03460    0.28660    1.000
    H12      H        0.67850    0.00520    0.31510    1.000
    N10      N        0.74110    0.17240    0.43960    1.000
    C16      C        0.76070    0.18590    0.50590    1.000
    C17      C        0.76470    0.18650    0.62580    1.000
    H13      H        0.74700    0.17130    0.66940    1.000
    C18      C        0.73340    0.15170    0.56490    1.000
    H14      H        0.70020    0.11270    0.56510    1.000
    Cl6      Cl       0.72070    0.12620    0.69760    1.000
    Zn3      Zn       0.89684    0.56481    0.40422    1.000
    N11      N        0.95650    0.62160    0.47690    1.000
    N12      N        0.96860    0.62690    0.45080    1.000
    C19      C        0.97770    0.68240    0.47590    1.000
    C20      C        0.97640    0.77140    0.47450    1.000
    H15      H        0.96100    0.79520    0.45750    1.000
    C21      C        0.95460    0.71540    0.45160    1.000
    H16      H        0.92340    0.69920    0.41890    1.000
    Cl7      Cl       0.95640    0.82160    0.45600    1.000
    Cl8      Cl       0.00080    0.83940    0.39700    1.000
    N13      N        0.88270    0.48440    0.42970    1.000
    O7       O        0.98510    0.53280    0.37700    1.000
    O8       O        0.96640    0.52450    0.31600    1.000
    C22      C        0.87600    0.47000    0.50800    1.000
    H17      H        0.87330    0.49200    0.54570    1.000
    C23      C        0.83190    0.44350    0.46690    1.000
    H18      H        0.80340    0.45100    0.48780    1.000
    N14      N        0.91670    0.59440    0.30900    1.000
    O9       O        0.81510    0.49010    0.30520    1.000
    C24      C        0.96540    0.64360    0.28660    1.000
    H19      H        0.99480    0.67330    0.31510    1.000
    N15      N        0.82760    0.56870    0.43960    1.000
    C25      C        0.81410    0.57480    0.50590    1.000
    C26      C        0.81350    0.57820    0.62580    1.000
    H20      H        0.82870    0.57570    0.66940    1.000
    C27      C        0.84830    0.58170    0.56490    1.000
    H21      H        0.88730    0.58750    0.56510    1.000
    Cl9      Cl       0.87380    0.59450    0.69760    1.000
    Zn4      Zn       0.56481    0.66797    0.90422    1.000
    N16      N        0.62160    0.66510    0.97690    1.000
    N17      N        0.62690    0.65830    0.95080    1.000
    C28      C        0.68240    0.70470    0.97590    1.000
    C29      C        0.77140    0.79500    0.97450    1.000
    H22      H        0.79520    0.83420    0.95750    1.000
    C30      C        0.71540    0.76080    0.95160    1.000
    H23      H        0.69920    0.77580    0.91890    1.000
    Cl10     Cl       0.82160    0.86520    0.95600    1.000
    Cl11     Cl       0.83940    0.83860    0.89700    1.000
    N18      N        0.48440    0.60170    0.92970    1.000
    O10      O        0.53280    0.54770    0.87700    1.000
    O11      O        0.52450    0.55810    0.81600    1.000
    C31      C        0.47000    0.59400    0.00800    1.000
    H24      H        0.49200    0.61870    0.04570    1.000
    C32      C        0.44350    0.61160    0.96690    1.000
    H25      H        0.45100    0.64760    0.98780    1.000
    N19      N        0.59440    0.67770    0.80900    1.000
    O12      O        0.49010    0.67500    0.80520    1.000
    C33      C        0.64360    0.67820    0.78660    1.000
    H26      H        0.67330    0.67850    0.81510    1.000
    N20      N        0.56870    0.74110    0.93960    1.000
    C34      C        0.57480    0.76070    0.00590    1.000
    C35      C        0.57820    0.76470    0.12580    1.000
    H27      H        0.57570    0.74700    0.16940    1.000
    C36      C        0.58170    0.73340    0.06490    1.000
    H28      H        0.58750    0.70020    0.06510    1.000
    Cl12     Cl       0.59450    0.72070    0.19760    1.000
    Zn5      Zn       0.33203    0.89684    0.90422    1.000
    N21      N        0.33490    0.95650    0.97690    1.000
    N22      N        0.34170    0.96860    0.95080    1.000
    C37      C        0.29530    0.97770    0.97590    1.000
    C38      C        0.20500    0.97640    0.97450    1.000
    H29      H        0.16580    0.96100    0.95750    1.000
    C39      C        0.23920    0.95460    0.95160    1.000
    H30      H        0.22420    0.92340    0.91890    1.000
    Cl13     Cl       0.13480    0.95640    0.95600    1.000
    Cl14     Cl       0.16140    0.00080    0.89700    1.000
    N23      N        0.39830    0.88270    0.92970    1.000
    O13      O        0.45230    0.98510    0.87700    1.000
    O14      O        0.44190    0.96640    0.81600    1.000
    C40      C        0.40600    0.87600    0.00800    1.000
    H31      H        0.38130    0.87330    0.04570    1.000
    C41      C        0.38840    0.83190    0.96690    1.000
    H32      H        0.35240    0.80340    0.98780    1.000
    N24      N        0.32230    0.91670    0.80900    1.000
    O15      O        0.32500    0.81510    0.80520    1.000
    C42      C        0.32180    0.96540    0.78660    1.000
    H33      H        0.32150    0.99480    0.81510    1.000
    N25      N        0.25890    0.82760    0.93960    1.000
    C43      C        0.23930    0.81410    0.00590    1.000
    C44      C        0.23530    0.81350    0.12580    1.000
    H34      H        0.25300    0.82870    0.16940    1.000
    C45      C        0.26660    0.84830    0.06490    1.000
    H35      H        0.29980    0.88730    0.06510    1.000
    Cl15     Cl       0.27930    0.87380    0.19760    1.000
    Zn6      Zn       0.10316    0.43519    0.90422    1.000
    N26      N        0.04350    0.37840    0.97690    1.000
    N27      N        0.03140    0.37310    0.95080    1.000
    C46      C        0.02230    0.31760    0.97590    1.000
    C47      C        0.02360    0.22860    0.97450    1.000
    H36      H        0.03900    0.20480    0.95750    1.000
    C48      C        0.04540    0.28460    0.95160    1.000
    H37      H        0.07660    0.30080    0.91890    1.000
    Cl16     Cl       0.04360    0.17840    0.95600    1.000
    Cl17     Cl       0.99920    0.16060    0.89700    1.000
    N28      N        0.11730    0.51560    0.92970    1.000
    O16      O        0.01490    0.46720    0.87700    1.000
    O17      O        0.03360    0.47550    0.81600    1.000
    C49      C        0.12400    0.53000    0.00800    1.000
    H38      H        0.12670    0.50800    0.04570    1.000
    C50      C        0.16810    0.55650    0.96690    1.000
    H39      H        0.19660    0.54900    0.98780    1.000
    N29      N        0.08330    0.40560    0.80900    1.000
    O18      O        0.18490    0.50990    0.80520    1.000
    C51      C        0.03460    0.35640    0.78660    1.000
    H40      H        0.00520    0.32670    0.81510    1.000
    N30      N        0.17240    0.43130    0.93960    1.000
    C52      C        0.18590    0.42520    0.00590    1.000
    C53      C        0.18650    0.42180    0.12580    1.000
    H41      H        0.17130    0.42430    0.16940    1.000
    C54      C        0.15170    0.41830    0.06490    1.000
    H42      H        0.11270    0.41250    0.06510    1.000
    Cl18     Cl       0.12620    0.40550    0.19760    1.000
    Zn7      Zn       0.33203    0.43519    0.59578    1.000
    N31      N        0.33490    0.37840    0.52310    1.000
    N32      N        0.34170    0.37310    0.54920    1.000
    C55      C        0.29530    0.31760    0.52410    1.000
    C56      C        0.20500    0.22860    0.52550    1.000
    H43      H        0.16580    0.20480    0.54250    1.000
    C57      C        0.23920    0.28460    0.54840    1.000
    H44      H        0.22420    0.30080    0.58110    1.000
    Cl19     Cl       0.13480    0.17840    0.54400    1.000
    Cl20     Cl       0.16140    0.16060    0.60300    1.000
    N33      N        0.39830    0.51560    0.57030    1.000
    O19      O        0.45230    0.46720    0.62300    1.000
    O20      O        0.44190    0.47550    0.68400    1.000
    C58      C        0.40600    0.53000    0.49200    1.000
    H45      H        0.38130    0.50800    0.45430    1.000
    C59      C        0.38840    0.55650    0.53310    1.000
    H46      H        0.35240    0.54900    0.51220    1.000
    N34      N        0.32230    0.40560    0.69100    1.000
    O21      O        0.32500    0.50990    0.69480    1.000
    C60      C        0.32180    0.35640    0.71340    1.000
    H47      H        0.32150    0.32670    0.68490    1.000
    N35      N        0.25890    0.43130    0.56040    1.000
    C61      C        0.23930    0.42520    0.49410    1.000
    C62      C        0.23530    0.42180    0.37420    1.000
    H48      H        0.25300    0.42430    0.33060    1.000
    C63      C        0.26660    0.41830    0.43510    1.000
    H49      H        0.29980    0.41250    0.43490    1.000
    Cl21     Cl       0.27930    0.40550    0.30240    1.000
    Zn8      Zn       0.10316    0.66797    0.59578    1.000
    N36      N        0.04350    0.66510    0.52310    1.000
    N37      N        0.03140    0.65830    0.54920    1.000
    C64      C        0.02230    0.70470    0.52410    1.000
    C65      C        0.02360    0.79500    0.52550    1.000
    H50      H        0.03900    0.83420    0.54250    1.000
    C66      C        0.04540    0.76080    0.54840    1.000
    H51      H        0.07660    0.77580    0.58110    1.000
    Cl22     Cl       0.04360    0.86520    0.54400    1.000
    Cl23     Cl       0.99920    0.83860    0.60300    1.000
    N38      N        0.11730    0.60170    0.57030    1.000
    O22      O        0.01490    0.54770    0.62300    1.000
    O23      O        0.03360    0.55810    0.68400    1.000
    C67      C        0.12400    0.59400    0.49200    1.000
    H52      H        0.12670    0.61870    0.45430    1.000
    C68      C        0.16810    0.61160    0.53310    1.000
    H53      H        0.19660    0.64760    0.51220    1.000
    N39      N        0.08330    0.67770    0.69100    1.000
    O24      O        0.18490    0.67500    0.69480    1.000
    C69      C        0.03460    0.67820    0.71340    1.000
    H54      H        0.00520    0.67850    0.68490    1.000
    N40      N        0.17240    0.74110    0.56040    1.000
    C70      C        0.18590    0.76070    0.49410    1.000
    C71      C        0.18650    0.76470    0.37420    1.000
    H55      H        0.17130    0.74700    0.33060    1.000
    C72      C        0.15170    0.73340    0.43510    1.000
    H56      H        0.11270    0.70020    0.43490    1.000
    Cl24     Cl       0.12620    0.72070    0.30240    1.000
    Zn9      Zn       0.56481    0.89684    0.59578    1.000
    N41      N        0.62160    0.95650    0.52310    1.000
    N42      N        0.62690    0.96860    0.54920    1.000
    C73      C        0.68240    0.97770    0.52410    1.000
    C74      C        0.77140    0.97640    0.52550    1.000
    H57      H        0.79520    0.96100    0.54250    1.000
    C75      C        0.71540    0.95460    0.54840    1.000
    H58      H        0.69920    0.92340    0.58110    1.000
    Cl25     Cl       0.82160    0.95640    0.54400    1.000
    Cl26     Cl       0.83940    0.00080    0.60300    1.000
    N43      N        0.48440    0.88270    0.57030    1.000
    O25      O        0.53280    0.98510    0.62300    1.000
    O26      O        0.52450    0.96640    0.68400    1.000
    C76      C        0.47000    0.87600    0.49200    1.000
    H59      H        0.49200    0.87330    0.45430    1.000
    C77      C        0.44350    0.83190    0.53310    1.000
    H60      H        0.45100    0.80340    0.51220    1.000
    N44      N        0.59440    0.91670    0.69100    1.000
    O27      O        0.49010    0.81510    0.69480    1.000
    C78      C        0.64360    0.96540    0.71340    1.000
    H61      H        0.67330    0.99480    0.68490    1.000
    N45      N        0.56870    0.82760    0.56040    1.000
    C79      C        0.57480    0.81410    0.49410    1.000
    C80      C        0.57820    0.81350    0.37420    1.000
    H62      H        0.57570    0.82870    0.33060    1.000
    C81      C        0.58170    0.84830    0.43510    1.000
    H63      H        0.58750    0.88730    0.43490    1.000
    Cl27     Cl       0.59450    0.87380    0.30240    1.000
    Zn10     Zn       0.66797    0.56481    0.09578    1.000
    N46      N        0.66510    0.62160    0.02310    1.000
    N47      N        0.65830    0.62690    0.04920    1.000
    C82      C        0.70470    0.68240    0.02410    1.000
    C83      C        0.79500    0.77140    0.02550    1.000
    H64      H        0.83420    0.79520    0.04250    1.000
    C84      C        0.76080    0.71540    0.04840    1.000
    H65      H        0.77580    0.69920    0.08110    1.000
    Cl28     Cl       0.86520    0.82160    0.04400    1.000
    Cl29     Cl       0.83860    0.83940    0.10300    1.000
    N48      N        0.60170    0.48440    0.07030    1.000
    O28      O        0.54770    0.53280    0.12300    1.000
    O29      O        0.55810    0.52450    0.18400    1.000
    C85      C        0.59400    0.47000    0.99200    1.000
    H66      H        0.61870    0.49200    0.95430    1.000
    C86      C        0.61160    0.44350    0.03310    1.000
    H67      H        0.64760    0.45100    0.01220    1.000
    N49      N        0.67770    0.59440    0.19100    1.000
    O30      O        0.67500    0.49010    0.19480    1.000
    C87      C        0.67820    0.64360    0.21340    1.000
    H68      H        0.67850    0.67330    0.18490    1.000
    N50      N        0.74110    0.56870    0.06040    1.000
    C88      C        0.76070    0.57480    0.99410    1.000
    C89      C        0.76470    0.57820    0.87420    1.000
    H69      H        0.74700    0.57570    0.83060    1.000
    C90      C        0.73340    0.58170    0.93510    1.000
    H70      H        0.70020    0.58750    0.93490    1.000
    Cl30     Cl       0.72070    0.59450    0.80240    1.000
    Zn11     Zn       0.89684    0.33203    0.09578    1.000
    N51      N        0.95650    0.33490    0.02310    1.000
    N52      N        0.96860    0.34170    0.04920    1.000
    C91      C        0.97770    0.29530    0.02410    1.000
    C92      C        0.97640    0.20500    0.02550    1.000
    H71      H        0.96100    0.16580    0.04250    1.000
    C93      C        0.95460    0.23920    0.04840    1.000
    H72      H        0.92340    0.22420    0.08110    1.000
    Cl31     Cl       0.95640    0.13480    0.04400    1.000
    Cl32     Cl       0.00080    0.16140    0.10300    1.000
    N53      N        0.88270    0.39830    0.07030    1.000
    O31      O        0.98510    0.45230    0.12300    1.000
    O32      O        0.96640    0.44190    0.18400    1.000
    C94      C        0.87600    0.40600    0.99200    1.000
    H73      H        0.87330    0.38130    0.95430    1.000
    C95      C        0.83190    0.38840    0.03310    1.000
    H74      H        0.80340    0.35240    0.01220    1.000
    N54      N        0.91670    0.32230    0.19100    1.000
    O33      O        0.81510    0.32500    0.19480    1.000
    C96      C        0.96540    0.32180    0.21340    1.000
    H75      H        0.99480    0.32150    0.18490    1.000
    N55      N        0.82760    0.25890    0.06040    1.000
    C97      C        0.81410    0.23930    0.99410    1.000
    C98      C        0.81350    0.23530    0.87420    1.000
    H76      H        0.82870    0.25300    0.83060    1.000
    C99      C        0.84830    0.26660    0.93510    1.000
    H77      H        0.88730    0.29980    0.93490    1.000
    Cl33     Cl       0.87380    0.27930    0.80240    1.000
    Zn12     Zn       0.43519    0.10316    0.09578    1.000
    N56      N        0.37840    0.04350    0.02310    1.000
    N57      N        0.37310    0.03140    0.04920    1.000
    C100     C        0.31760    0.02230    0.02410    1.000
    C101     C        0.22860    0.02360    0.02550    1.000
    H78      H        0.20480    0.03900    0.04250    1.000
    C102     C        0.28460    0.04540    0.04840    1.000
    H79      H        0.30080    0.07660    0.08110    1.000
    Cl34     Cl       0.17840    0.04360    0.04400    1.000
    Cl35     Cl       0.16060    0.99920    0.10300    1.000
    N58      N        0.51560    0.11730    0.07030    1.000
    O34      O        0.46720    0.01490    0.12300    1.000
    O35      O        0.47550    0.03360    0.18400    1.000
    C103     C        0.53000    0.12400    0.99200    1.000
    H80      H        0.50800    0.12670    0.95430    1.000
    C104     C        0.55650    0.16810    0.03310    1.000
    H81      H        0.54900    0.19660    0.01220    1.000
    N59      N        0.40560    0.08330    0.19100    1.000
    O36      O        0.50990    0.18490    0.19480    1.000
    C105     C        0.35640    0.03460    0.21340    1.000
    H82      H        0.32670    0.00520    0.18490    1.000
    N60      N        0.43130    0.17240    0.06040    1.000
    C106     C        0.42520    0.18590    0.99410    1.000
    C107     C        0.42180    0.18650    0.87420    1.000
    H83      H        0.42430    0.17130    0.83060    1.000
    C108     C        0.41830    0.15170    0.93510    1.000
    H84      H        0.41250    0.11270    0.93490    1.000
    Cl36     Cl       0.40550    0.12620    0.80240    1.000
    Zn13     Zn       0.56481    0.66797    0.59578    1.000
    N61      N        0.62160    0.66510    0.52310    1.000
    N62      N        0.62690    0.65830    0.54920    1.000
    C109     C        0.68240    0.70470    0.52410    1.000
    C110     C        0.77140    0.79500    0.52550    1.000
    H85      H        0.79520    0.83420    0.54250    1.000
    C111     C        0.71540    0.76080    0.54840    1.000
    H86      H        0.69920    0.77580    0.58110    1.000
    Cl37     Cl       0.82160    0.86520    0.54400    1.000
    Cl38     Cl       0.83940    0.83860    0.60300    1.000
    N63      N        0.48440    0.60170    0.57030    1.000
    O37      O        0.53280    0.54770    0.62300    1.000
    O38      O        0.52450    0.55810    0.68400    1.000
    C112     C        0.47000    0.59400    0.49200    1.000
    H87      H        0.49200    0.61870    0.45430    1.000
    C113     C        0.44350    0.61160    0.53310    1.000
    H88      H        0.45100    0.64760    0.51220    1.000
    N64      N        0.59440    0.67770    0.69100    1.000
    O39      O        0.49010    0.67500    0.69480    1.000
    C114     C        0.64360    0.67820    0.71340    1.000
    H89      H        0.67330    0.67850    0.68490    1.000
    N65      N        0.56870    0.74110    0.56040    1.000
    C115     C        0.57480    0.76070    0.49410    1.000
    C116     C        0.57820    0.76470    0.37420    1.000
    H90      H        0.57570    0.74700    0.33060    1.000
    C117     C        0.58170    0.73340    0.43510    1.000
    H91      H        0.58750    0.70020    0.43490    1.000
    Cl39     Cl       0.59450    0.72070    0.30240    1.000
    Zn14     Zn       0.33203    0.89684    0.59578    1.000
    N66      N        0.33490    0.95650    0.52310    1.000
    N67      N        0.34170    0.96860    0.54920    1.000
    C118     C        0.29530    0.97770    0.52410    1.000
    C119     C        0.20500    0.97640    0.52550    1.000
    H92      H        0.16580    0.96100    0.54250    1.000
    C120     C        0.23920    0.95460    0.54840    1.000
    H93      H        0.22420    0.92340    0.58110    1.000
    Cl40     Cl       0.13480    0.95640    0.54400    1.000
    Cl41     Cl       0.16140    0.00080    0.60300    1.000
    N68      N        0.39830    0.88270    0.57030    1.000
    O40      O        0.45230    0.98510    0.62300    1.000
    O41      O        0.44190    0.96640    0.68400    1.000
    C121     C        0.40600    0.87600    0.49200    1.000
    H94      H        0.38130    0.87330    0.45430    1.000
    C122     C        0.38840    0.83190    0.53310    1.000
    H95      H        0.35240    0.80340    0.51220    1.000
    N69      N        0.32230    0.91670    0.69100    1.000
    O42      O        0.32500    0.81510    0.69480    1.000
    C123     C        0.32180    0.96540    0.71340    1.000
    H96      H        0.32150    0.99480    0.68490    1.000
    N70      N        0.25890    0.82760    0.56040    1.000
    C124     C        0.23930    0.81410    0.49410    1.000
    C125     C        0.23530    0.81350    0.37420    1.000
    H97      H        0.25300    0.82870    0.33060    1.000
    C126     C        0.26660    0.84830    0.43510    1.000
    H98      H        0.29980    0.88730    0.43490    1.000
    Cl42     Cl       0.27930    0.87380    0.30240    1.000
    Zn15     Zn       0.10316    0.43519    0.59578    1.000
    N71      N        0.04350    0.37840    0.52310    1.000
    N72      N        0.03140    0.37310    0.54920    1.000
    C127     C        0.02230    0.31760    0.52410    1.000
    C128     C        0.02360    0.22860    0.52550    1.000
    H99      H        0.03900    0.20480    0.54250    1.000
    C129     C        0.04540    0.28460    0.54840    1.000
    H100     H        0.07660    0.30080    0.58110    1.000
    Cl43     Cl       0.04360    0.17840    0.54400    1.000
    Cl44     Cl       0.99920    0.16060    0.60300    1.000
    N73      N        0.11730    0.51560    0.57030    1.000
    O43      O        0.01490    0.46720    0.62300    1.000
    O44      O        0.03360    0.47550    0.68400    1.000
    C130     C        0.12400    0.53000    0.49200    1.000
    H101     H        0.12670    0.50800    0.45430    1.000
    C131     C        0.16810    0.55650    0.53310    1.000
    H102     H        0.19660    0.54900    0.51220    1.000
    N74      N        0.08330    0.40560    0.69100    1.000
    O45      O        0.18490    0.50990    0.69480    1.000
    C132     C        0.03460    0.35640    0.71340    1.000
    H103     H        0.00520    0.32670    0.68490    1.000
    N75      N        0.17240    0.43130    0.56040    1.000
    C133     C        0.18590    0.42520    0.49410    1.000
    C134     C        0.18650    0.42180    0.37420    1.000
    H104     H        0.17130    0.42430    0.33060    1.000
    C135     C        0.15170    0.41830    0.43510    1.000
    H105     H        0.11270    0.41250    0.43490    1.000
    Cl45     Cl       0.12620    0.40550    0.30240    1.000
    Zn16     Zn       0.43519    0.33203    0.09578    1.000
    N76      N        0.37840    0.33490    0.02310    1.000
    N77      N        0.37310    0.34170    0.04920    1.000
    C136     C        0.31760    0.29530    0.02410    1.000
    C137     C        0.22860    0.20500    0.02550    1.000
    H106     H        0.20480    0.16580    0.04250    1.000
    C138     C        0.28460    0.23920    0.04840    1.000
    H107     H        0.30080    0.22420    0.08110    1.000
    Cl46     Cl       0.17840    0.13480    0.04400    1.000
    Cl47     Cl       0.16060    0.16140    0.10300    1.000
    N78      N        0.51560    0.39830    0.07030    1.000
    O46      O        0.46720    0.45230    0.12300    1.000
    O47      O        0.47550    0.44190    0.18400    1.000
    C139     C        0.53000    0.40600    0.99200    1.000
    H108     H        0.50800    0.38130    0.95430    1.000
    C140     C        0.55650    0.38840    0.03310    1.000
    H109     H        0.54900    0.35240    0.01220    1.000
    N79      N        0.40560    0.32230    0.19100    1.000
    O48      O        0.50990    0.32500    0.19480    1.000
    C141     C        0.35640    0.32180    0.21340    1.000
    H110     H        0.32670    0.32150    0.18490    1.000
    N80      N        0.43130    0.25890    0.06040    1.000
    C142     C        0.42520    0.23930    0.99410    1.000
    C143     C        0.42180    0.23530    0.87420    1.000
    H111     H        0.42430    0.25300    0.83060    1.000
    C144     C        0.41830    0.26660    0.93510    1.000
    H112     H        0.41250    0.29980    0.93490    1.000
    Cl48     Cl       0.40550    0.27930    0.80240    1.000
    Zn17     Zn       0.66797    0.10316    0.09578    1.000
    N81      N        0.66510    0.04350    0.02310    1.000
    N82      N        0.65830    0.03140    0.04920    1.000
    C145     C        0.70470    0.02230    0.02410    1.000
    C146     C        0.79500    0.02360    0.02550    1.000
    H113     H        0.83420    0.03900    0.04250    1.000
    C147     C        0.76080    0.04540    0.04840    1.000
    H114     H        0.77580    0.07660    0.08110    1.000
    Cl49     Cl       0.86520    0.04360    0.04400    1.000
    Cl50     Cl       0.83860    0.99920    0.10300    1.000
    N83      N        0.60170    0.11730    0.07030    1.000
    O49      O        0.54770    0.01490    0.12300    1.000
    O50      O        0.55810    0.03360    0.18400    1.000
    C148     C        0.59400    0.12400    0.99200    1.000
    H115     H        0.61870    0.12670    0.95430    1.000
    C149     C        0.61160    0.16810    0.03310    1.000
    H116     H        0.64760    0.19660    0.01220    1.000
    N84      N        0.67770    0.08330    0.19100    1.000
    O51      O        0.67500    0.18490    0.19480    1.000
    C150     C        0.67820    0.03460    0.21340    1.000
    H117     H        0.67850    0.00520    0.18490    1.000
    N85      N        0.74110    0.17240    0.06040    1.000
    C151     C        0.76070    0.18590    0.99410    1.000
    C152     C        0.76470    0.18650    0.87420    1.000
    H118     H        0.74700    0.17130    0.83060    1.000
    C153     C        0.73340    0.15170    0.93510    1.000
    H119     H        0.70020    0.11270    0.93490    1.000
    Cl51     Cl       0.72070    0.12620    0.80240    1.000
    Zn18     Zn       0.89684    0.56481    0.09578    1.000
    N86      N        0.95650    0.62160    0.02310    1.000
    N87      N        0.96860    0.62690    0.04920    1.000
    C154     C        0.97770    0.68240    0.02410    1.000
    C155     C        0.97640    0.77140    0.02550    1.000
    H120     H        0.96100    0.79520    0.04250    1.000
    C156     C        0.95460    0.71540    0.04840    1.000
    H121     H        0.92340    0.69920    0.08110    1.000
    Cl52     Cl       0.95640    0.82160    0.04400    1.000
    Cl53     Cl       0.00080    0.83940    0.10300    1.000
    N88      N        0.88270    0.48440    0.07030    1.000
    O52      O        0.98510    0.53280    0.12300    1.000
    O53      O        0.96640    0.52450    0.18400    1.000
    C157     C        0.87600    0.47000    0.99200    1.000
    H122     H        0.87330    0.49200    0.95430    1.000
    C158     C        0.83190    0.44350    0.03310    1.000
    H123     H        0.80340    0.45100    0.01220    1.000
    N89      N        0.91670    0.59440    0.19100    1.000
    O54      O        0.81510    0.49010    0.19480    1.000
    C159     C        0.96540    0.64360    0.21340    1.000
    H124     H        0.99480    0.67330    0.18490    1.000
    N90      N        0.82760    0.56870    0.06040    1.000
    C160     C        0.81410    0.57480    0.99410    1.000
    C161     C        0.81350    0.57820    0.87420    1.000
    H125     H        0.82870    0.57570    0.83060    1.000
    C162     C        0.84830    0.58170    0.93510    1.000
    H126     H        0.88730    0.58750    0.93490    1.000
    Cl54     Cl       0.87380    0.59450    0.80240    1.000
    Zn19     Zn       0.66797    0.56481    0.40422    1.000
    N91      N        0.66510    0.62160    0.47690    1.000
    N92      N        0.65830    0.62690    0.45080    1.000
    C163     C        0.70470    0.68240    0.47590    1.000
    C164     C        0.79500    0.77140    0.47450    1.000
    H127     H        0.83420    0.79520    0.45750    1.000
    C165     C        0.76080    0.71540    0.45160    1.000
    H128     H        0.77580    0.69920    0.41890    1.000
    Cl55     Cl       0.86520    0.82160    0.45600    1.000
    Cl56     Cl       0.83860    0.83940    0.39700    1.000
    N93      N        0.60170    0.48440    0.42970    1.000
    O55      O        0.54770    0.53280    0.37700    1.000
    O56      O        0.55810    0.52450    0.31600    1.000
    C166     C        0.59400    0.47000    0.50800    1.000
    H129     H        0.61870    0.49200    0.54570    1.000
    C167     C        0.61160    0.44350    0.46690    1.000
    H130     H        0.64760    0.45100    0.48780    1.000
    N94      N        0.67770    0.59440    0.30900    1.000
    O57      O        0.67500    0.49010    0.30520    1.000
    C168     C        0.67820    0.64360    0.28660    1.000
    H131     H        0.67850    0.67330    0.31510    1.000
    N95      N        0.74110    0.56870    0.43960    1.000
    C169     C        0.76070    0.57480    0.50590    1.000
    C170     C        0.76470    0.57820    0.62580    1.000
    H132     H        0.74700    0.57570    0.66940    1.000
    C171     C        0.73340    0.58170    0.56490    1.000
    H133     H        0.70020    0.58750    0.56510    1.000
    Cl57     Cl       0.72070    0.59450    0.69760    1.000
    Zn20     Zn       0.89684    0.33203    0.40422    1.000
    N96      N        0.95650    0.33490    0.47690    1.000
    N97      N        0.96860    0.34170    0.45080    1.000
    C172     C        0.97770    0.29530    0.47590    1.000
    C173     C        0.97640    0.20500    0.47450    1.000
    H134     H        0.96100    0.16580    0.45750    1.000
    C174     C        0.95460    0.23920    0.45160    1.000
    H135     H        0.92340    0.22420    0.41890    1.000
    Cl58     Cl       0.95640    0.13480    0.45600    1.000
    Cl59     Cl       0.00080    0.16140    0.39700    1.000
    N98      N        0.88270    0.39830    0.42970    1.000
    O58      O        0.98510    0.45230    0.37700    1.000
    O59      O        0.96640    0.44190    0.31600    1.000
    C175     C        0.87600    0.40600    0.50800    1.000
    H136     H        0.87330    0.38130    0.54570    1.000
    C176     C        0.83190    0.38840    0.46690    1.000
    H137     H        0.80340    0.35240    0.48780    1.000
    N99      N        0.91670    0.32230    0.30900    1.000
    O60      O        0.81510    0.32500    0.30520    1.000
    C177     C        0.96540    0.32180    0.28660    1.000
    H138     H        0.99480    0.32150    0.31510    1.000
    N100     N        0.82760    0.25890    0.43960    1.000
    C178     C        0.81410    0.23930    0.50590    1.000
    C179     C        0.81350    0.23530    0.62580    1.000
    H139     H        0.82870    0.25300    0.66940    1.000
    C180     C        0.84830    0.26660    0.56490    1.000
    H140     H        0.88730    0.29980    0.56510    1.000
    Cl60     Cl       0.87380    0.27930    0.69760    1.000
    Zn21     Zn       0.43519    0.10316    0.40422    1.000
    N101     N        0.37840    0.04350    0.47690    1.000
    N102     N        0.37310    0.03140    0.45080    1.000
    C181     C        0.31760    0.02230    0.47590    1.000
    C182     C        0.22860    0.02360    0.47450    1.000
    H141     H        0.20480    0.03900    0.45750    1.000
    C183     C        0.28460    0.04540    0.45160    1.000
    H142     H        0.30080    0.07660    0.41890    1.000
    Cl61     Cl       0.17840    0.04360    0.45600    1.000
    Cl62     Cl       0.16060    0.99920    0.39700    1.000
    N103     N        0.51560    0.11730    0.42970    1.000
    O61      O        0.46720    0.01490    0.37700    1.000
    O62      O        0.47550    0.03360    0.31600    1.000
    C184     C        0.53000    0.12400    0.50800    1.000
    H143     H        0.50800    0.12670    0.54570    1.000
    C185     C        0.55650    0.16810    0.46690    1.000
    H144     H        0.54900    0.19660    0.48780    1.000
    N104     N        0.40560    0.08330    0.30900    1.000
    O63      O        0.50990    0.18490    0.30520    1.000
    C186     C        0.35640    0.03460    0.28660    1.000
    H145     H        0.32670    0.00520    0.31510    1.000
    N105     N        0.43130    0.17240    0.43960    1.000
    C187     C        0.42520    0.18590    0.50590    1.000
    C188     C        0.42180    0.18650    0.62580    1.000
    H146     H        0.42430    0.17130    0.66940    1.000
    C189     C        0.41830    0.15170    0.56490    1.000
    H147     H        0.41250    0.11270    0.56510    1.000
    Cl63     Cl       0.40550    0.12620    0.69760    1.000
    Zn22     Zn       0.33203    0.43519    0.90422    1.000
    N106     N        0.33490    0.37840    0.97690    1.000
    N107     N        0.34170    0.37310    0.95080    1.000
    C190     C        0.29530    0.31760    0.97590    1.000
    C191     C        0.20500    0.22860    0.97450    1.000
    H148     H        0.16580    0.20480    0.95750    1.000
    C192     C        0.23920    0.28460    0.95160    1.000
    H149     H        0.22420    0.30080    0.91890    1.000
    Cl64     Cl       0.13480    0.17840    0.95600    1.000
    Cl65     Cl       0.16140    0.16060    0.89700    1.000
    N108     N        0.39830    0.51560    0.92970    1.000
    O64      O        0.45230    0.46720    0.87700    1.000
    O65      O        0.44190    0.47550    0.81600    1.000
    C193     C        0.40600    0.53000    0.00800    1.000
    H150     H        0.38130    0.50800    0.04570    1.000
    C194     C        0.38840    0.55650    0.96690    1.000
    H151     H        0.35240    0.54900    0.98780    1.000
    N109     N        0.32230    0.40560    0.80900    1.000
    O66      O        0.32500    0.50990    0.80520    1.000
    C195     C        0.32180    0.35640    0.78660    1.000
    H152     H        0.32150    0.32670    0.81510    1.000
    N110     N        0.25890    0.43130    0.93960    1.000
    C196     C        0.23930    0.42520    0.00590    1.000
    C197     C        0.23530    0.42180    0.12580    1.000
    H153     H        0.25300    0.42430    0.16940    1.000
    C198     C        0.26660    0.41830    0.06490    1.000
    H154     H        0.29980    0.41250    0.06510    1.000
    Cl66     Cl       0.27930    0.40550    0.19760    1.000
    Zn23     Zn       0.10316    0.66797    0.90422    1.000
    N111     N        0.04350    0.66510    0.97690    1.000
    N112     N        0.03140    0.65830    0.95080    1.000
    C199     C        0.02230    0.70470    0.97590    1.000
    C200     C        0.02360    0.79500    0.97450    1.000
    H155     H        0.03900    0.83420    0.95750    1.000
    C201     C        0.04540    0.76080    0.95160    1.000
    H156     H        0.07660    0.77580    0.91890    1.000
    Cl67     Cl       0.04360    0.86520    0.95600    1.000
    Cl68     Cl       0.99920    0.83860    0.89700    1.000
    N113     N        0.11730    0.60170    0.92970    1.000
    O67      O        0.01490    0.54770    0.87700    1.000
    O68      O        0.03360    0.55810    0.81600    1.000
    C202     C        0.12400    0.59400    0.00800    1.000
    H157     H        0.12670    0.61870    0.04570    1.000
    C203     C        0.16810    0.61160    0.96690    1.000
    H158     H        0.19660    0.64760    0.98780    1.000
    N114     N        0.08330    0.67770    0.80900    1.000
    O69      O        0.18490    0.67500    0.80520    1.000
    C204     C        0.03460    0.67820    0.78660    1.000
    H159     H        0.00520    0.67850    0.81510    1.000
    N115     N        0.17240    0.74110    0.93960    1.000
    C205     C        0.18590    0.76070    0.00590    1.000
    C206     C        0.18650    0.76470    0.12580    1.000
    H160     H        0.17130    0.74700    0.16940    1.000
    C207     C        0.15170    0.73340    0.06490    1.000
    H161     H        0.11270    0.70020    0.06510    1.000
    Cl69     Cl       0.12620    0.72070    0.19760    1.000
    Zn24     Zn       0.56481    0.89684    0.90422    1.000
    N116     N        0.62160    0.95650    0.97690    1.000
    N117     N        0.62690    0.96860    0.95080    1.000
    C208     C        0.68240    0.97770    0.97590    1.000
    C209     C        0.77140    0.97640    0.97450    1.000
    H162     H        0.79520    0.96100    0.95750    1.000
    C210     C        0.71540    0.95460    0.95160    1.000
    H163     H        0.69920    0.92340    0.91890    1.000
    Cl70     Cl       0.82160    0.95640    0.95600    1.000
    Cl71     Cl       0.83940    0.00080    0.89700    1.000
    N118     N        0.48440    0.88270    0.92970    1.000
    O70      O        0.53280    0.98510    0.87700    1.000
    O71      O        0.52450    0.96640    0.81600    1.000
    C211     C        0.47000    0.87600    0.00800    1.000
    H164     H        0.49200    0.87330    0.04570    1.000
    C212     C        0.44350    0.83190    0.96690    1.000
    H165     H        0.45100    0.80340    0.98780    1.000
    N119     N        0.59440    0.91670    0.80900    1.000
    O72      O        0.49010    0.81510    0.80520    1.000
    C213     C        0.64360    0.96540    0.78660    1.000
    H166     H        0.67330    0.99480    0.81510    1.000
    N120     N        0.56870    0.82760    0.93960    1.000
    C214     C        0.57480    0.81410    0.00590    1.000
    C215     C        0.57820    0.81350    0.12580    1.000
    H167     H        0.57570    0.82870    0.16940    1.000
    C216     C        0.58170    0.84830    0.06490    1.000
    H168     H        0.58750    0.88730    0.06510    1.000
    Cl72     Cl       0.59450    0.87380    0.19760    1.000
    C217     C        0.38350    0.38350    0.50000    1.000
    H169     H        0.41990    0.41990    0.50000    1.000
    C218     C        0.61650    0.00000    0.50000    1.000
    H170     H        0.58010    0.00000    0.50000    1.000
    C219     C        0.00000    0.61650    0.50000    1.000
    H171     H        0.00000    0.58010    0.50000    1.000
    C220     C        0.61650    0.61650    0.00000    1.000
    H172     H        0.58010    0.58010    0.00000    1.000
    C221     C        0.38350    0.00000    0.00000    1.000
    H173     H        0.41990    0.00000    0.00000    1.000
    C222     C        0.00000    0.38350    0.00000    1.000
    H174     H        0.00000    0.41990    0.00000    1.000
    C223     C        0.61650    0.61650    0.50000    1.000
    H175     H        0.58010    0.58010    0.50000    1.000
    C224     C        0.38350    0.00000    0.50000    1.000
    H176     H        0.41990    0.00000    0.50000    1.000
    C225     C        0.00000    0.38350    0.50000    1.000
    H177     H        0.00000    0.41990    0.50000    1.000
    C226     C        0.38350    0.38350    0.00000    1.000
    H178     H        0.41990    0.41990    0.00000    1.000
    C227     C        0.61650    0.00000    0.00000    1.000
    H179     H        0.58010    0.00000    0.00000    1.000
    C228     C        0.00000    0.61650    0.00000    1.000
    H180     H        0.00000    0.58010    0.00000    1.000
    C229     C        0.54800    0.45200    0.40870    1.000
    N121     N        0.52550    0.47450    0.33100    1.000
    N122     N        0.51920    0.48080    0.38100    1.000
    C230     C        0.54800    0.09600    0.40870    1.000
    N123     N        0.52550    0.05100    0.33100    1.000
    N124     N        0.51920    0.03840    0.38100    1.000
    C231     C        0.90400    0.45200    0.40870    1.000
    N125     N        0.94900    0.47450    0.33100    1.000
    N126     N        0.96160    0.48080    0.38100    1.000
    C232     C        0.45200    0.54800    0.90870    1.000
    N127     N        0.47450    0.52550    0.83100    1.000
    N128     N        0.48080    0.51920    0.88100    1.000
    C233     C        0.45200    0.90400    0.90870    1.000
    N129     N        0.47450    0.94900    0.83100    1.000
    N130     N        0.48080    0.96160    0.88100    1.000
    C234     C        0.09600    0.54800    0.90870    1.000
    N131     N        0.05100    0.52550    0.83100    1.000
    N132     N        0.03840    0.51920    0.88100    1.000
    C235     C        0.45200    0.54800    0.59130    1.000
    N133     N        0.47450    0.52550    0.66900    1.000
    N134     N        0.48080    0.51920    0.61900    1.000
    C236     C        0.09600    0.54800    0.59130    1.000
    N135     N        0.05100    0.52550    0.66900    1.000
    N136     N        0.03840    0.51920    0.61900    1.000
    C237     C        0.45200    0.90400    0.59130    1.000
    N137     N        0.47450    0.94900    0.66900    1.000
    N138     N        0.48080    0.96160    0.61900    1.000
    C238     C        0.54800    0.45200    0.09130    1.000
    N139     N        0.52550    0.47450    0.16900    1.000
    N140     N        0.51920    0.48080    0.11900    1.000
    C239     C        0.90400    0.45200    0.09130    1.000
    N141     N        0.94900    0.47450    0.16900    1.000
    N142     N        0.96160    0.48080    0.11900    1.000
    C240     C        0.54800    0.09600    0.09130    1.000
    N143     N        0.52550    0.05100    0.16900    1.000
    N144     N        0.51920    0.03840    0.11900    1.000
    C241     C        0.43190    0.32230    0.25000    1.000
    N145     N        0.48840    0.32470    0.25000    1.000
    C242     C        0.67770    0.10960    0.25000    1.000
    N146     N        0.67530    0.16370    0.25000    1.000
    C243     C        0.89040    0.56810    0.25000    1.000
    N147     N        0.83630    0.51160    0.25000    1.000
    C244     C        0.56810    0.67770    0.75000    1.000
    N148     N        0.51160    0.67530    0.75000    1.000
    C245     C        0.32230    0.89040    0.75000    1.000
    N149     N        0.32470    0.83630    0.75000    1.000
    C246     C        0.10960    0.43190    0.75000    1.000
    N150     N        0.16370    0.48840    0.75000    1.000
    C247     C        0.32230    0.43190    0.75000    1.000
    N151     N        0.32470    0.48840    0.75000    1.000
    C248     C        0.10960    0.67770    0.75000    1.000
    N152     N        0.16370    0.67530    0.75000    1.000
    C249     C        0.56810    0.89040    0.75000    1.000
    N153     N        0.51160    0.83630    0.75000    1.000
    C250     C        0.67770    0.56810    0.25000    1.000
    N154     N        0.67530    0.51160    0.25000    1.000
    C251     C        0.89040    0.32230    0.25000    1.000
    N155     N        0.83630    0.32470    0.25000    1.000
    C252     C        0.43190    0.10960    0.25000    1.000
    N156     N        0.48840    0.16370    0.25000    1.000
    C253     C        0.43590    0.21795    0.40440    1.000
    H181     H        0.44210    0.22105    0.35600    1.000
    C254     C        0.78205    0.21795    0.40440    1.000
    H182     H        0.77895    0.22105    0.35600    1.000
    C255     C        0.78205    0.56410    0.40440    1.000
    H183     H        0.77895    0.55790    0.35600    1.000
    C256     C        0.56410    0.78205    0.90440    1.000
    H184     H        0.55790    0.77895    0.85600    1.000
    C257     C        0.21795    0.78205    0.90440    1.000
    H185     H        0.22105    0.77895    0.85600    1.000
    C258     C        0.21795    0.43590    0.90440    1.000
    H186     H        0.22105    0.44210    0.85600    1.000
    C259     C        0.21795    0.43590    0.59560    1.000
    H187     H        0.22105    0.44210    0.64400    1.000
    C260     C        0.21795    0.78205    0.59560    1.000
    H188     H        0.22105    0.77895    0.64400    1.000
    C261     C        0.56410    0.78205    0.59560    1.000
    H189     H        0.55790    0.77895    0.64400    1.000
    C262     C        0.78205    0.56410    0.09560    1.000
    H190     H        0.77895    0.55790    0.14400    1.000
    C263     C        0.78205    0.21795    0.09560    1.000
    H191     H        0.77895    0.22105    0.14400    1.000
    C264     C        0.43590    0.21795    0.09560    1.000
    H192     H        0.44210    0.22105    0.14400    1.000
