# CIF file generated by openbabel 3.1.0, see https://openbabel.org
data_I
_chemical_name_common 'SEHTAB_clean'
_cell_length_a 10.782
_cell_length_b 10.881
_cell_length_c 15.51
_cell_angle_alpha 90
_cell_angle_beta 90
_cell_angle_gamma 100.26
_space_group_name_H-M_alt 'P 1'
_space_group_name_Hall 'P 1'
loop_
    _symmetry_equiv_pos_as_xyz
    x,y,z
loop_
    _atom_site_label
    _atom_site_type_symbol
    _atom_site_fract_x
    _atom_site_fract_y
    _atom_site_fract_z
    _atom_site_occupancy
    Yb1      Yb       0.14397    0.39856    0.89800    1.000
    Yb2      Yb       0.35603    0.10144    0.39800    1.000
    Yb3      Yb       0.85603    0.60144    0.10200    1.000
    Yb4      Yb       0.64397    0.89856    0.60200    1.000
    H1       H        0.44820    0.18350    0.76500    1.000
    H2       H        0.81870    0.22290    0.81360    1.000
    H3       H        0.60140    0.41220    0.95420    1.000
    H4       H        0.05180    0.31650    0.26500    1.000
    H5       H        0.68130    0.27710    0.31360    1.000
    H6       H        0.89860    0.08780    0.45420    1.000
    H7       H        0.55180    0.81650    0.23500    1.000
    H8       H        0.18130    0.77710    0.18640    1.000
    H9       H        0.39860    0.58780    0.04580    1.000
    H10      H        0.94820    0.68350    0.73500    1.000
    H11      H        0.31870    0.72290    0.68640    1.000
    H12      H        0.10140    0.91220    0.54580    1.000
    C1       C        0.37860    0.33620    0.87760    1.000
    C2       C        0.50520    0.30290    0.86220    1.000
    C3       C        0.51830    0.21980    0.79680    1.000
    C4       C        0.63600    0.18970    0.77810    1.000
    C5       C        0.74030    0.24310    0.82570    1.000
    C6       C        0.72810    0.32690    0.89170    1.000
    C7       C        0.60990    0.35650    0.91000    1.000
    C8       C        0.64450    0.09780    0.70760    1.000
    C9       C        0.84200    0.38550    0.94300    1.000
    C10      C        0.12140    0.16380    0.37760    1.000
    C11      C        0.99480    0.19710    0.36220    1.000
    C12      C        0.98170    0.28020    0.29680    1.000
    C13      C        0.86400    0.31030    0.27810    1.000
    C14      C        0.75970    0.25690    0.32570    1.000
    C15      C        0.77190    0.17310    0.39170    1.000
    C16      C        0.89010    0.14350    0.41000    1.000
    C17      C        0.85550    0.40220    0.20760    1.000
    C18      C        0.65800    0.11450    0.44300    1.000
    C19      C        0.62140    0.66380    0.12240    1.000
    C20      C        0.49480    0.69710    0.13780    1.000
    C21      C        0.48170    0.78020    0.20320    1.000
    C22      C        0.36400    0.81030    0.22190    1.000
    C23      C        0.25970    0.75690    0.17430    1.000
    C24      C        0.27190    0.67310    0.10830    1.000
    C25      C        0.39010    0.64350    0.09000    1.000
    C26      C        0.35550    0.90220    0.29240    1.000
    C27      C        0.15800    0.61450    0.05700    1.000
    C28      C        0.87860    0.83620    0.62240    1.000
    C29      C        0.00520    0.80290    0.63780    1.000
    C30      C        0.01830    0.71980    0.70320    1.000
    C31      C        0.13600    0.68970    0.72190    1.000
    C32      C        0.24030    0.74310    0.67430    1.000
    C33      C        0.22810    0.82690    0.60830    1.000
    C34      C        0.10990    0.85650    0.59000    1.000
    C35      C        0.14450    0.59780    0.79240    1.000
    C36      C        0.34200    0.88550    0.55700    1.000
    O1       O        0.28830    0.29030    0.82990    1.000
    O2       O        0.36400    0.41180    0.93680    1.000
    O3       O        0.74530    0.05500    0.69710    1.000
    O4       O        0.55000    0.06110    0.66140    1.000
    O5       O        0.83090    0.47720    0.98890    1.000
    O6       O        0.93960    0.33820    0.93680    1.000
    O7       O        0.21170    0.20970    0.32990    1.000
    O8       O        0.13600    0.08820    0.43680    1.000
    O9       O        0.75470    0.44500    0.19710    1.000
    O10      O        0.95000    0.43890    0.16140    1.000
    O11      O        0.66910    0.02280    0.48890    1.000
    O12      O        0.56040    0.16180    0.43680    1.000
    O13      O        0.71170    0.70970    0.17010    1.000
    O14      O        0.63600    0.58820    0.06320    1.000
    O15      O        0.25470    0.94500    0.30290    1.000
    O16      O        0.45000    0.93890    0.33860    1.000
    O17      O        0.16910    0.52280    0.01110    1.000
    O18      O        0.06040    0.66180    0.06320    1.000
    O19      O        0.78830    0.79030    0.67010    1.000
    O20      O        0.86400    0.91180    0.56320    1.000
    O21      O        0.24530    0.55500    0.80290    1.000
    O22      O        0.05000    0.56110    0.83860    1.000
    O23      O        0.33090    0.97720    0.51110    1.000
    O24      O        0.43960    0.83820    0.56320    1.000
