# CIF file generated by openbabel 3.1.0, see https://openbabel.org
data_I
_chemical_name_common 'image0'
_cell_length_a 15.838
_cell_length_b 10.548
_cell_length_c 21.074
_cell_angle_alpha 90
_cell_angle_beta 107.247
_cell_angle_gamma 90
_space_group_name_H-M_alt 'P 1'
_space_group_name_Hall 'P 1'
loop_
    _symmetry_equiv_pos_as_xyz
    x,y,z
loop_
    _atom_site_label
    _atom_site_type_symbol
    _atom_site_fract_x
    _atom_site_fract_y
    _atom_site_fract_z
    _atom_site_occupancy
    Nd1      Nd       0.39920    0.08038    0.54667    1.000
    O1       O        0.50460    0.92200    0.59300    1.000
    O2       O        0.65430    0.08730    0.53860    1.000
    O3       O        0.60950    0.82790    0.56030    1.000
    O4       O        0.54170    0.17170    0.56500    1.000
    O5       O        0.60700    0.06510    0.83690    1.000
    O6       O        0.68950    0.92910    0.90640    1.000
    C1       C        0.57730    0.86610    0.60430    1.000
    C2       C        0.74860    0.72710    0.75420    1.000
    C3       C        0.63050    0.84280    0.67580    1.000
    N1       N        0.81190    0.63190    0.76720    1.000
    O7       O        0.23920    0.86420    0.98960    1.000
    C4       C        0.69680    0.75110    0.69060    1.000
    H1       H        0.70640    0.70440    0.65600    1.000
    C5       C        0.66650    0.89040    0.79150    1.000
    C6       C        0.61410    0.91270    0.72670    1.000
    H2       H        0.56930    0.97300    0.71770    1.000
    O8       O        0.19410    0.98870    0.90070    1.000
    C7       C        0.86480    0.59990    0.83420    1.000
    H3       H        0.88090    0.51110    0.83530    1.000
    H4       H        0.82910    0.61140    0.86400    1.000
    C8       C        0.70640    0.43220    0.69120    1.000
    H5       H        0.68850    0.47560    0.72330    1.000
    C9       C        0.78340    0.46460    0.67900    1.000
    C10      C        0.67990    0.26850    0.60830    1.000
    C11      C        0.62120    0.16840    0.56800    1.000
    C12      C        0.96420    0.78430    0.82730    1.000
    H6       H        0.92250    0.80970    0.78810    1.000
    C13      C        0.73220    0.79830    0.80500    1.000
    H7       H        0.76580    0.78390    0.84880    1.000
    C14      C        0.94830    0.67800    0.85940    1.000
    C15      C        0.10380    0.81820    0.90940    1.000
    C16      C        0.84070    0.57540    0.71420    1.000
    H8       H        0.90100    0.54590    0.73250    1.000
    H9       H        0.84060    0.64030    0.68160    1.000
    C17      C        0.04070    0.85480    0.85160    1.000
    H10      H        0.04970    0.92690    0.82900    1.000
    C18      C        0.81090    0.39560    0.63310    1.000
    H11      H        0.86480    0.41500    0.62610    1.000
    C19      C        0.65390    0.96570    0.84840    1.000
    C20      C        0.18440    0.89280    0.93720    1.000
    C21      C        0.65450    0.33410    0.65570    1.000
    H12      H        0.60200    0.31290    0.66430    1.000
    C22      C        0.76050    0.29910    0.59750    1.000
    H13      H        0.77980    0.25420    0.56650    1.000
    C23      C        0.01360    0.63960    0.91680    1.000
    H14      H        0.00510    0.56630    0.93870    1.000
    C24      C        0.08980    0.70810    0.94130    1.000
    H15      H        0.13250    0.68090    0.97950    1.000
    Nd2      Nd       0.60081    0.08038    0.95333    1.000
    O9       O        0.49540    0.92200    0.90700    1.000
    O10      O        0.34570    0.08730    0.96140    1.000
    O11      O        0.39050    0.82790    0.93970    1.000
    O12      O        0.45830    0.17170    0.93500    1.000
    O13      O        0.39300    0.06510    0.66310    1.000
    O14      O        0.31050    0.92910    0.59360    1.000
    C25      C        0.42270    0.86610    0.89570    1.000
    C26      C        0.25140    0.72710    0.74580    1.000
    C27      C        0.36950    0.84280    0.82420    1.000
    N2       N        0.18810    0.63190    0.73280    1.000
    O15      O        0.76080    0.86420    0.51040    1.000
    C28      C        0.30320    0.75110    0.80940    1.000
    H16      H        0.29360    0.70440    0.84400    1.000
    C29      C        0.33350    0.89040    0.70850    1.000
    C30      C        0.38590    0.91270    0.77330    1.000
    H17      H        0.43070    0.97300    0.78230    1.000
    O16      O        0.80590    0.98870    0.59930    1.000
    C31      C        0.13520    0.59990    0.66580    1.000
    H18      H        0.11910    0.51110    0.66470    1.000
    H19      H        0.17090    0.61140    0.63600    1.000
    C32      C        0.29360    0.43220    0.80880    1.000
    H20      H        0.31150    0.47560    0.77670    1.000
    C33      C        0.21660    0.46460    0.82100    1.000
    C34      C        0.32010    0.26850    0.89170    1.000
    C35      C        0.37880    0.16840    0.93200    1.000
    C36      C        0.03580    0.78430    0.67270    1.000
    H21      H        0.07750    0.80970    0.71190    1.000
    C37      C        0.26780    0.79830    0.69500    1.000
    H22      H        0.23420    0.78390    0.65120    1.000
    C38      C        0.05170    0.67800    0.64060    1.000
    C39      C        0.89620    0.81820    0.59060    1.000
    C40      C        0.15930    0.57540    0.78580    1.000
    H23      H        0.09900    0.54590    0.76750    1.000
    H24      H        0.15940    0.64030    0.81840    1.000
    C41      C        0.95930    0.85480    0.64840    1.000
    H25      H        0.95030    0.92690    0.67100    1.000
    C42      C        0.18910    0.39560    0.86690    1.000
    H26      H        0.13520    0.41500    0.87390    1.000
    C43      C        0.34610    0.96570    0.65160    1.000
    C44      C        0.81560    0.89280    0.56280    1.000
    C45      C        0.34550    0.33410    0.84430    1.000
    H27      H        0.39800    0.31290    0.83570    1.000
    C46      C        0.23950    0.29910    0.90250    1.000
    H28      H        0.22020    0.25420    0.93350    1.000
    C47      C        0.98640    0.63960    0.58320    1.000
    H29      H        0.99490    0.56630    0.56130    1.000
    C48      C        0.91020    0.70810    0.55870    1.000
    H30      H        0.86750    0.68090    0.52050    1.000
    Nd3      Nd       0.60081    0.91962    0.45333    1.000
    O17      O        0.49540    0.07800    0.40700    1.000
    O18      O        0.34570    0.91270    0.46140    1.000
    O19      O        0.39050    0.17210    0.43970    1.000
    O20      O        0.45830    0.82830    0.43500    1.000
    O21      O        0.39300    0.93490    0.16310    1.000
    O22      O        0.31050    0.07090    0.09360    1.000
    C49      C        0.42270    0.13390    0.39570    1.000
    C50      C        0.25140    0.27290    0.24580    1.000
    C51      C        0.36950    0.15720    0.32420    1.000
    N3       N        0.18810    0.36810    0.23280    1.000
    O23      O        0.76080    0.13580    0.01040    1.000
    C52      C        0.30320    0.24890    0.30940    1.000
    H31      H        0.29360    0.29560    0.34400    1.000
    C53      C        0.33350    0.10960    0.20850    1.000
    C54      C        0.38590    0.08730    0.27330    1.000
    H32      H        0.43070    0.02700    0.28230    1.000
    O24      O        0.80590    0.01130    0.09930    1.000
    C55      C        0.13520    0.40010    0.16580    1.000
    H33      H        0.11910    0.48890    0.16470    1.000
    H34      H        0.17090    0.38860    0.13600    1.000
    C56      C        0.29360    0.56780    0.30880    1.000
    H35      H        0.31150    0.52440    0.27670    1.000
    C57      C        0.21660    0.53540    0.32100    1.000
    C58      C        0.32010    0.73150    0.39170    1.000
    C59      C        0.37880    0.83160    0.43200    1.000
    C60      C        0.03580    0.21570    0.17270    1.000
    H36      H        0.07750    0.19030    0.21190    1.000
    C61      C        0.26780    0.20170    0.19500    1.000
    H37      H        0.23420    0.21610    0.15120    1.000
    C62      C        0.05170    0.32200    0.14060    1.000
    C63      C        0.89620    0.18180    0.09060    1.000
    C64      C        0.15930    0.42460    0.28580    1.000
    H38      H        0.09900    0.45410    0.26750    1.000
    H39      H        0.15940    0.35970    0.31840    1.000
    C65      C        0.95930    0.14520    0.14840    1.000
    H40      H        0.95030    0.07310    0.17100    1.000
    C66      C        0.18910    0.60440    0.36690    1.000
    H41      H        0.13520    0.58500    0.37390    1.000
    C67      C        0.34610    0.03430    0.15160    1.000
    C68      C        0.81560    0.10720    0.06280    1.000
    C69      C        0.34550    0.66590    0.34430    1.000
    H42      H        0.39800    0.68710    0.33570    1.000
    C70      C        0.23950    0.70090    0.40250    1.000
    H43      H        0.22020    0.74580    0.43350    1.000
    C71      C        0.98640    0.36040    0.08320    1.000
    H44      H        0.99490    0.43370    0.06130    1.000
    C72      C        0.91020    0.29190    0.05870    1.000
    H45      H        0.86750    0.31910    0.02050    1.000
    Nd4      Nd       0.39920    0.91962    0.04667    1.000
    O25      O        0.50460    0.07800    0.09300    1.000
    O26      O        0.65430    0.91270    0.03860    1.000
    O27      O        0.60950    0.17210    0.06030    1.000
    O28      O        0.54170    0.82830    0.06500    1.000
    O29      O        0.60700    0.93490    0.33690    1.000
    O30      O        0.68950    0.07090    0.40640    1.000
    C73      C        0.57730    0.13390    0.10430    1.000
    C74      C        0.74860    0.27290    0.25420    1.000
    C75      C        0.63050    0.15720    0.17580    1.000
    N4       N        0.81190    0.36810    0.26720    1.000
    O31      O        0.23920    0.13580    0.48960    1.000
    C76      C        0.69680    0.24890    0.19060    1.000
    H46      H        0.70640    0.29560    0.15600    1.000
    C77      C        0.66650    0.10960    0.29150    1.000
    C78      C        0.61410    0.08730    0.22670    1.000
    H47      H        0.56930    0.02700    0.21770    1.000
    O32      O        0.19410    0.01130    0.40070    1.000
    C79      C        0.86480    0.40010    0.33420    1.000
    H48      H        0.88090    0.48890    0.33530    1.000
    H49      H        0.82910    0.38860    0.36400    1.000
    C80      C        0.70640    0.56780    0.19120    1.000
    H50      H        0.68850    0.52440    0.22330    1.000
    C81      C        0.78340    0.53540    0.17900    1.000
    C82      C        0.67990    0.73150    0.10830    1.000
    C83      C        0.62120    0.83160    0.06800    1.000
    C84      C        0.96420    0.21570    0.32730    1.000
    H51      H        0.92250    0.19030    0.28810    1.000
    C85      C        0.73220    0.20170    0.30500    1.000
    H52      H        0.76580    0.21610    0.34880    1.000
    C86      C        0.94830    0.32200    0.35940    1.000
    C87      C        0.10380    0.18180    0.40940    1.000
    C88      C        0.84070    0.42460    0.21420    1.000
    H53      H        0.90100    0.45410    0.23250    1.000
    H54      H        0.84060    0.35970    0.18160    1.000
    C89      C        0.04070    0.14520    0.35160    1.000
    H55      H        0.04970    0.07310    0.32900    1.000
    C90      C        0.81090    0.60440    0.13310    1.000
    H56      H        0.86480    0.58500    0.12610    1.000
    C91      C        0.65390    0.03430    0.34840    1.000
    C92      C        0.18440    0.10720    0.43720    1.000
    C93      C        0.65450    0.66590    0.15570    1.000
    H57      H        0.60200    0.68710    0.16430    1.000
    C94      C        0.76050    0.70090    0.09750    1.000
    H58      H        0.77980    0.74580    0.06650    1.000
    C95      C        0.01360    0.36040    0.41680    1.000
    H59      H        0.00510    0.43370    0.43870    1.000
    C96      C        0.08980    0.29190    0.44130    1.000
    H60      H        0.13250    0.31910    0.47950    1.000
