# CIF file generated by openbabel 3.1.0, see https://openbabel.org
data_I
_chemical_name_common 'image0'
_cell_length_a 6.6349
_cell_length_b 8.6371
_cell_length_c 9.6727
_cell_angle_alpha 90
_cell_angle_beta 102.101
_cell_angle_gamma 90
_space_group_name_H-M_alt 'P 1'
_space_group_name_Hall 'P 1'
loop_
    _symmetry_equiv_pos_as_xyz
    x,y,z
loop_
    _atom_site_label
    _atom_site_type_symbol
    _atom_site_fract_x
    _atom_site_fract_y
    _atom_site_fract_z
    _atom_site_occupancy
    Er1      Er       0.10557    0.23094    0.27076    1.000
    O1       O        0.07340    0.45610    0.12620    1.000
    O2       O        0.00210    0.61790    0.94650    1.000
    O3       O        0.14220    0.42530    0.43230    1.000
    O4       O        0.06340    0.58690    0.58830    1.000
    O5       O        0.42350    0.30070    0.22880    1.000
    O6       O        0.75420    0.30530    0.22080    1.000
    O7       O        0.37410    0.13050    0.47930    1.000
    O8       O        0.28070    0.97990    0.29420    1.000
    C1       C        0.97900    0.49680    0.01020    1.000
    H1       H        0.87850    0.42910    0.96380    1.000
    C2       C        0.04110    0.51410    0.48260    1.000
    H2       H        0.91230    0.53040    0.42440    1.000
    C3       C        0.59900    0.25090    0.23960    1.000
    H3       H        0.61280    0.14810    0.26870    1.000
    C4       C        0.38310    0.00430    0.41650    1.000
    H4       H        0.46860    0.92650    0.46230    1.000
    Er2      Er       0.89443    0.73094    0.72924    1.000
    O9       O        0.92660    0.95610    0.87380    1.000
    O10      O        0.99790    0.11790    0.05350    1.000
    O11      O        0.85780    0.92530    0.56770    1.000
    O12      O        0.93660    0.08690    0.41170    1.000
    O13      O        0.57650    0.80070    0.77120    1.000
    O14      O        0.24580    0.80530    0.77920    1.000
    O15      O        0.62590    0.63050    0.52070    1.000
    O16      O        0.71930    0.47990    0.70580    1.000
    C5       C        0.02100    0.99680    0.98980    1.000
    H5       H        0.12150    0.92910    0.03620    1.000
    C6       C        0.95890    0.01410    0.51740    1.000
    H6       H        0.08770    0.03040    0.57560    1.000
    C7       C        0.40100    0.75090    0.76040    1.000
    H7       H        0.38720    0.64810    0.73130    1.000
    C8       C        0.61690    0.50430    0.58350    1.000
    H8       H        0.53140    0.42650    0.53770    1.000
