# CIF file generated by openbabel 3.1.0, see https://openbabel.org
data_I
_chemical_name_common 'image0'
_cell_length_a 10.217
_cell_length_b 10.362
_cell_length_c 18.118
_cell_angle_alpha 102.53
_cell_angle_beta 99.35
_cell_angle_gamma 93.79
_space_group_name_H-M_alt 'P 1'
_space_group_name_Hall 'P 1'
loop_
    _symmetry_equiv_pos_as_xyz
    x,y,z
loop_
    _atom_site_label
    _atom_site_type_symbol
    _atom_site_fract_x
    _atom_site_fract_y
    _atom_site_fract_z
    _atom_site_occupancy
    C1       C        0.21590    0.98760    0.75120    1.000
    C2       C        0.36020    0.01840    0.78920    1.000
    C3       C        0.46160    0.99540    0.74620    1.000
    H1       H        0.44010    0.96100    0.69330    1.000
    C4       C        0.59450    0.02390    0.78210    1.000
    C5       C        0.70430    0.99360    0.73580    1.000
    C6       C        0.62500    0.07760    0.86050    1.000
    H2       H        0.71390    0.09770    0.88460    1.000
    C7       C        0.52520    0.10190    0.90380    1.000
    C8       C        0.39340    0.07000    0.86830    1.000
    H3       H        0.32630    0.08300    0.89740    1.000
    C9       C        0.49210    0.23310    0.02810    1.000
    C10      C        0.54280    0.26790    0.11330    1.000
    C11      C        0.67810    0.28490    0.14520    1.000
    H4       H        0.74160    0.27150    0.11370    1.000
    C12      C        0.71700    0.32210    0.22450    1.000
    H5       H        0.80740    0.33390    0.24580    1.000
    C13      C        0.62440    0.34200    0.27230    1.000
    C14      C        0.66570    0.39200    0.35730    1.000
    C15      C        0.48940    0.32300    0.23990    1.000
    H6       H        0.42630    0.33490    0.27180    1.000
    C16      C        0.44790    0.28670    0.16140    1.000
    H7       H        0.35740    0.27480    0.14030    1.000
    C17      C        0.81320    0.36380    0.47260    1.000
    C18      C        0.83580    0.49560    0.51350    1.000
    H8       H        0.81620    0.56350    0.48860    1.000
    C19      C        0.88830    0.52550    0.59220    1.000
    C20      C        0.91150    0.67080    0.63520    1.000
    C21      C        0.92010    0.42380    0.62790    1.000
    H9       H        0.95610    0.44390    0.68010    1.000
    C22      C        0.89940    0.29180    0.58710    1.000
    C23      C        0.93060    0.18020    0.62690    1.000
    C24      C        0.84540    0.26290    0.50870    1.000
    H10      H        0.83110    0.17510    0.48070    1.000
    Cd1      Cd       0.95185    0.95298    0.68418    1.000
    N1       N        0.56190    0.15270    0.98490    1.000
    H11      H        0.63430    0.12990    0.00780    1.000
    N2       N        0.75910    0.33090    0.39240    1.000
    H12      H        0.78950    0.26600    0.36420    1.000
    O1       O        0.12810    0.01820    0.79140    1.000
    O2       O        0.18690    0.93520    0.68055    1.000
    O3       O        0.67440    0.96120    0.66470    1.000
    O4       O        0.82150    0.00320    0.77230    1.000
    O5       O        0.39080    0.27760    0.00140    1.000
    O6       O        0.61060    0.48400    0.39160    1.000
    O7       O        0.90430    0.06320    0.58710    1.000
    O8       O        0.97800    0.20710    0.69570    1.000
    O9       O        0.89190    0.75720    0.59630    1.000
    O10      O        0.95240    0.70110    0.70580    1.000
    C25      C        0.78410    0.01240    0.24880    1.000
    C26      C        0.63980    0.98160    0.21080    1.000
    C27      C        0.53840    0.00460    0.25380    1.000
    H13      H        0.55990    0.03900    0.30670    1.000
    C28      C        0.40550    0.97610    0.21790    1.000
    C29      C        0.29570    0.00640    0.26420    1.000
    C30      C        0.37500    0.92240    0.13950    1.000
    H14      H        0.28610    0.90230    0.11540    1.000
    C31      C        0.47480    0.89810    0.09620    1.000
    C32      C        0.60660    0.93000    0.13170    1.000
    H15      H        0.67370    0.91700    0.10260    1.000
    C33      C        0.50790    0.76690    0.97190    1.000
    C34      C        0.45720    0.73210    0.88670    1.000
    C35      C        0.32190    0.71510    0.85480    1.000
    H16      H        0.25840    0.72850    0.88630    1.000
    C36      C        0.28300    0.67790    0.77550    1.000
    H17      H        0.19260    0.66610    0.75420    1.000
    C37      C        0.37560    0.65800    0.72770    1.000
    C38      C        0.33430    0.60800    0.64270    1.000
    C39      C        0.51060    0.67700    0.76010    1.000
    H18      H        0.57370    0.66510    0.72820    1.000
    C40      C        0.55210    0.71330    0.83860    1.000
    H19      H        0.64260    0.72520    0.85970    1.000
    C41      C        0.18680    0.63620    0.52740    1.000
    C42      C        0.16420    0.50440    0.48650    1.000
    H20      H        0.18380    0.43650    0.51140    1.000
    C43      C        0.11170    0.47450    0.40780    1.000
    C44      C        0.08850    0.32920    0.36480    1.000
    C45      C        0.07990    0.57620    0.37210    1.000
    H21      H        0.04390    0.55610    0.31990    1.000
    C46      C        0.10060    0.70820    0.41290    1.000
    C47      C        0.06940    0.81980    0.37310    1.000
    C48      C        0.15460    0.73710    0.49130    1.000
    H22      H        0.16890    0.82490    0.51930    1.000
    Cd2      Cd       0.04815    0.04702    0.31582    1.000
    N3       N        0.43810    0.84730    0.01510    1.000
    H23      H        0.36570    0.87010    0.99220    1.000
    N4       N        0.24090    0.66910    0.60760    1.000
    H24      H        0.21050    0.73400    0.63580    1.000
    O11      O        0.87190    0.98180    0.20860    1.000
    O12      O        0.81310    0.06480    0.31945    1.000
    O13      O        0.32560    0.03880    0.33530    1.000
    O14      O        0.17850    0.99680    0.22770    1.000
    O15      O        0.60920    0.72240    0.99860    1.000
    O16      O        0.38940    0.51600    0.60840    1.000
    O17      O        0.09570    0.93680    0.41290    1.000
    O18      O        0.02200    0.79290    0.30430    1.000
    O19      O        0.10810    0.24280    0.40370    1.000
    O20      O        0.04760    0.29890    0.29420    1.000
