# CIF file generated by openbabel 3.1.0, see https://openbabel.org
data_I
_chemical_name_common 'image0'
_cell_length_a 26.8901
_cell_length_b 26.8901
_cell_length_c 13.2591
_cell_angle_alpha 90
_cell_angle_beta 90
_cell_angle_gamma 90
_space_group_name_H-M_alt 'P 1'
_space_group_name_Hall 'P 1'
loop_
    _symmetry_equiv_pos_as_xyz
    x,y,z
loop_
    _atom_site_label
    _atom_site_type_symbol
    _atom_site_fract_x
    _atom_site_fract_y
    _atom_site_fract_z
    _atom_site_occupancy
    Ti1      Ti       0.30573    0.77418    0.67871    1.000
    O1       O        0.32250    0.82570    0.58090    1.000
    N1       N        0.23670    0.77320    0.58980    1.000
    H1       H        0.21170    0.75380    0.62970    1.000
    N2       N        0.32080    0.71620    0.55890    1.000
    H2       H        0.34370    0.73100    0.50770    1.000
    O2       O        0.37220    0.76250    0.70950    1.000
    C1       C        0.27430    0.70080    0.50660    1.000
    H3       H        0.25590    0.67750    0.55210    1.000
    C2       C        0.34580    0.67150    0.60360    1.000
    H4       H        0.35190    0.64720    0.54900    1.000
    H5       H        0.32260    0.65590    0.65210    1.000
    C3       C        0.30286    0.91070    0.37290    1.000
    H6       H        0.32150    0.92990    0.32600    1.000
    C4       C        0.32723    0.88200    0.44470    1.000
    C5       C        0.29993    0.85402    0.51320    1.000
    C6       C        0.24827    0.85470    0.50990    1.000
    C7       C        0.22390    0.88340    0.43810    1.000
    H7       H        0.18860    0.88390    0.43590    1.000
    C8       C        0.25120    0.91140    0.36960    1.000
    C9       C        0.42760    0.64177    0.66130    1.000
    H8       H        0.42020    0.61180    0.62650    1.000
    C10      C        0.47150    0.64600    0.71600    1.000
    C11      C        0.48229    0.68990    0.76690    1.000
    H9       H        0.51230    0.69270    0.80430    1.000
    C12      C        0.44920    0.72950    0.76300    1.000
    C13      C        0.40535    0.72534    0.70830    1.000
    C14      C        0.39454    0.68150    0.65740    1.000
    Cd1      Cd       0.62627    0.45282    0.71110    1.000
    C15      C        0.21720    0.82470    0.58150    1.000
    H10      H        0.21750    0.84060    0.64880    1.000
    H11      H        0.18240    0.82380    0.55720    1.000
    C16      C        0.38560    0.88220    0.44870    1.000
    C17      C        0.28160    0.67530    0.40690    1.000
    H12      H        0.30100    0.64440    0.41720    1.000
    H13      H        0.30080    0.69730    0.36150    1.000
    C18      C        0.46170    0.77910    0.82040    1.000
    C19      C        0.40520    0.82830    0.43540    1.000
    H14      H        0.39560    0.80830    0.49410    1.000
    H15      H        0.44150    0.82880    0.42950    1.000
    H16      H        0.39080    0.81370    0.37430    1.000
    C20      C        0.19860    0.70750    0.34600    1.000
    H17      H        0.21330    0.73030    0.29550    1.000
    H18      H        0.16580    0.69650    0.32010    1.000
    C21      C        0.24220    0.74750    0.49170    1.000
    H19      H        0.26040    0.77040    0.44520    1.000
    C22      C        0.46130    0.82290    0.75040    1.000
    H20      H        0.48790    0.81920    0.70030    1.000
    H21      H        0.46670    0.85350    0.78910    1.000
    H22      H        0.42910    0.82470    0.71590    1.000
    C23      C        0.51420    0.77660    0.87470    1.000
    H23      H        0.51570    0.74690    0.91740    1.000
    H24      H        0.51880    0.80640    0.91640    1.000
    H25      H        0.54060    0.77510    0.82370    1.000
    C24      C        0.42270    0.78700    0.90390    1.000
    H26      H        0.39040    0.79440    0.87320    1.000
    H27      H        0.43290    0.81480    0.94690    1.000
    H28      H        0.42000    0.75670    0.94480    1.000
    C25      C        0.19130    0.73470    0.44190    1.000
    H29      H        0.17140    0.71410    0.48880    1.000
    H30      H        0.17270    0.76580    0.42880    1.000
    C26      C        0.40250    0.90370    0.54590    1.000
    H31      H        0.38940    0.93750    0.55290    1.000
    H32      H        0.43890    0.90460    0.54730    1.000
    H33      H        0.39040    0.88310    0.60170    1.000
    C27      C        0.23300    0.99030    0.28000    1.000
    H34      H        0.26200    0.00440    0.30970    1.000
    C28      C        0.40810    0.91250    0.36290    1.000
    H35      H        0.40530    0.89380    0.29970    1.000
    H36      H        0.44330    0.91900    0.37740    1.000
    H37      H        0.39030    0.94410    0.35650    1.000
    C29      C        0.23210    0.66240    0.35760    1.000
    H38      H        0.23850    0.64770    0.29040    1.000
    H39      H        0.21490    0.63700    0.39910    1.000
    Br1      Br       0.59170    0.39750    0.86920    1.000
    O3       O        0.70580    0.42650    0.74180    1.000
    C30      C        0.71550    0.46660    0.79000    1.000
    O4       O        0.68480    0.49820    0.81290    1.000
    C31      C        0.76830    0.47690    0.82200    1.000
    H40      H        0.78970    0.44950    0.79980    1.000
    H41      H        0.77970    0.50800    0.79050    1.000
    H42      H        0.76990    0.48010    0.89520    1.000
    C32      C        0.49980    0.56200    0.63650    1.000
    H43      H        0.47670    0.56500    0.58270    1.000
    C33      C        0.50240    0.59870    0.71000    1.000
    C34      C        0.53620    0.59430    0.78900    1.000
    H44      H        0.53790    0.61940    0.83920    1.000
    C35      C        0.56740    0.55320    0.79410    1.000
    H45      H        0.59050    0.55020    0.84800    1.000
    N3       N        0.56480    0.51650    0.72050    1.000
    C36      C        0.53100    0.52090    0.64170    1.000
    H46      H        0.52920    0.49580    0.59140    1.000
    N4       N        0.16660    0.00240    0.17640    1.000
    C37      C        0.17790    0.92820    0.25860    1.000
    H47      H        0.16610    0.89560    0.27270    1.000
    C38      C        0.15210    0.95710    0.19500    1.000
    H48      H        0.12300    0.94440    0.16380    1.000
    C39      C        0.21960    0.94360    0.30260    1.000
    C40      C        0.20540    0.01690    0.21600    1.000
    H49      H        0.21650    0.04950    0.20050    1.000
    Cd2      Cd       0.64210    0.47139    0.76480    1.000
    Br2      Br       0.60360    0.42580    0.92590    1.000
    O5       O        0.69980    0.52400    0.86290    1.000
    O6       O        0.71840    0.44630    0.78600    1.000
    C41      C        0.78310    0.49740    0.84500    1.000
    H50      H        0.80090    0.46760    0.82210    1.000
    H51      H        0.79270    0.52580    0.80330    1.000
    H52      H        0.79160    0.50410    0.91560    1.000
    C42      C        0.72780    0.48890    0.83600    1.000
    N5       N        0.57970    0.52770    0.75660    1.000
    C43      C        0.57660    0.56330    0.83230    1.000
    H53      H        0.59770    0.56120    0.88960    1.000
    C44      C        0.54250    0.60190    0.82430    1.000
    H54      H        0.54030    0.62630    0.87600    1.000
    C45      C        0.51160    0.60500    0.74100    1.000
    C46      C        0.51470    0.56940    0.66480    1.000
    H55      H        0.49360    0.57150    0.60750    1.000
    C47      C        0.54880    0.53070    0.67280    1.000
    H56      H        0.55090    0.50640    0.62110    1.000
    C48      C        0.23960    0.98800    0.25600    1.000
    H57      H        0.26460    0.00500    0.29280    1.000
    C49      C        0.22980    0.93820    0.27570    1.000
    C50      C        0.19320    0.91330    0.22170    1.000
    H58      H        0.18650    0.87930    0.23520    1.000
    C51      C        0.16620    0.93830    0.14790    1.000
    H59      H        0.14120    0.92130    0.11100    1.000
    N6       N        0.17600    0.98810    0.12810    1.000
    C52      C        0.21260    0.01300    0.18200    1.000
    H60      H        0.21930    0.04700    0.16850    1.000
    Ti2      Ti       0.69427    0.22582    0.17871    1.000
    O7       O        0.67750    0.17430    0.08090    1.000
    N7       N        0.76330    0.22680    0.08980    1.000
    H61      H        0.78830    0.24620    0.12970    1.000
    N8       N        0.67920    0.28380    0.05890    1.000
    H62      H        0.65630    0.26900    0.00770    1.000
    O8       O        0.62780    0.23750    0.20950    1.000
    C53      C        0.72570    0.29920    0.00660    1.000
    H63      H        0.74410    0.32250    0.05210    1.000
    C54      C        0.65420    0.32850    0.10360    1.000
    H64      H        0.64810    0.35280    0.04900    1.000
    H65      H        0.67740    0.34410    0.15210    1.000
    C55      C        0.69714    0.08930    0.87290    1.000
    H66      H        0.67850    0.07010    0.82600    1.000
    C56      C        0.67277    0.11800    0.94470    1.000
    C57      C        0.70007    0.14598    0.01320    1.000
    C58      C        0.75173    0.14530    0.00990    1.000
    C59      C        0.77610    0.11660    0.93810    1.000
    H67      H        0.81140    0.11610    0.93590    1.000
    C60      C        0.74880    0.08860    0.86960    1.000
    C61      C        0.57240    0.35823    0.16130    1.000
    H68      H        0.57980    0.38820    0.12650    1.000
    C62      C        0.52850    0.35400    0.21600    1.000
    C63      C        0.51771    0.31010    0.26690    1.000
    H69      H        0.48770    0.30730    0.30430    1.000
    C64      C        0.55080    0.27050    0.26300    1.000
    C65      C        0.59465    0.27466    0.20830    1.000
    C66      C        0.60546    0.31850    0.15740    1.000
    Cd3      Cd       0.37373    0.54718    0.21110    1.000
    C67      C        0.78280    0.17530    0.08150    1.000
    H70      H        0.78250    0.15940    0.14880    1.000
    H71      H        0.81760    0.17620    0.05720    1.000
    C68      C        0.61440    0.11780    0.94870    1.000
    C69      C        0.71840    0.32470    0.90690    1.000
    H72      H        0.69900    0.35560    0.91720    1.000
    H73      H        0.69920    0.30270    0.86150    1.000
    C70      C        0.53830    0.22090    0.32040    1.000
    C71      C        0.59480    0.17170    0.93540    1.000
    H74      H        0.60440    0.19170    0.99410    1.000
    H75      H        0.55850    0.17120    0.92950    1.000
    H76      H        0.60920    0.18630    0.87430    1.000
    C72      C        0.80140    0.29250    0.84600    1.000
    H77      H        0.78670    0.26970    0.79550    1.000
    H78      H        0.83420    0.30350    0.82010    1.000
    C73      C        0.75780    0.25250    0.99170    1.000
    H79      H        0.73960    0.22960    0.94520    1.000
    C74      C        0.53870    0.17710    0.25040    1.000
    H80      H        0.51210    0.18080    0.20030    1.000
    H81      H        0.53330    0.14650    0.28910    1.000
    H82      H        0.57090    0.17530    0.21590    1.000
    C75      C        0.48580    0.22340    0.37470    1.000
    H83      H        0.48430    0.25310    0.41740    1.000
    H84      H        0.48120    0.19360    0.41640    1.000
    H85      H        0.45940    0.22490    0.32370    1.000
    C76      C        0.57730    0.21300    0.40390    1.000
    H86      H        0.60960    0.20560    0.37320    1.000
    H87      H        0.56710    0.18520    0.44690    1.000
    H88      H        0.58000    0.24330    0.44480    1.000
    C77      C        0.80870    0.26530    0.94190    1.000
    H89      H        0.82860    0.28590    0.98880    1.000
    H90      H        0.82730    0.23420    0.92880    1.000
    C78      C        0.59750    0.09630    0.04590    1.000
    H91      H        0.61060    0.06250    0.05290    1.000
    H92      H        0.56110    0.09540    0.04730    1.000
    H93      H        0.60960    0.11690    0.10170    1.000
    C79      C        0.76700    0.00970    0.78000    1.000
    H94      H        0.73800    0.99560    0.80970    1.000
    C80      C        0.59190    0.08750    0.86290    1.000
    H95      H        0.59470    0.10620    0.79970    1.000
    H96      H        0.55670    0.08100    0.87740    1.000
    H97      H        0.60970    0.05590    0.85650    1.000
    C81      C        0.76790    0.33760    0.85760    1.000
    H98      H        0.76150    0.35230    0.79040    1.000
    H99      H        0.78510    0.36300    0.89910    1.000
    Br3      Br       0.40830    0.60250    0.36920    1.000
    O9       O        0.29420    0.57350    0.24180    1.000
    C82      C        0.28450    0.53340    0.29000    1.000
    O10      O        0.31520    0.50180    0.31290    1.000
    C83      C        0.23170    0.52310    0.32200    1.000
    H100     H        0.21030    0.55050    0.29980    1.000
    H101     H        0.22030    0.49200    0.29050    1.000
    H102     H        0.23010    0.51990    0.39520    1.000
    C84      C        0.50020    0.43800    0.13650    1.000
    H103     H        0.52330    0.43500    0.08270    1.000
    C85      C        0.49760    0.40130    0.21000    1.000
    C86      C        0.46380    0.40570    0.28900    1.000
    H104     H        0.46210    0.38060    0.33920    1.000
    C87      C        0.43260    0.44680    0.29410    1.000
    H105     H        0.40950    0.44980    0.34800    1.000
    N9       N        0.43520    0.48350    0.22050    1.000
    C88      C        0.46900    0.47910    0.14170    1.000
    H106     H        0.47080    0.50420    0.09140    1.000
    N10      N        0.83340    0.99760    0.67640    1.000
    C89      C        0.82210    0.07180    0.75860    1.000
    H107     H        0.83390    0.10440    0.77270    1.000
    C90      C        0.84790    0.04290    0.69500    1.000
    H108     H        0.87700    0.05560    0.66380    1.000
    C91      C        0.78040    0.05640    0.80260    1.000
    C92      C        0.79460    0.98310    0.71600    1.000
    H109     H        0.78350    0.95050    0.70050    1.000
    Cd4      Cd       0.35790    0.52861    0.26480    1.000
    Br4      Br       0.39640    0.57420    0.42590    1.000
    O11      O        0.30020    0.47600    0.36290    1.000
    O12      O        0.28160    0.55370    0.28600    1.000
    C93      C        0.21690    0.50260    0.34500    1.000
    H110     H        0.19910    0.53240    0.32210    1.000
    H111     H        0.20730    0.47420    0.30330    1.000
    H112     H        0.20840    0.49590    0.41560    1.000
    C94      C        0.27220    0.51110    0.33600    1.000
    N11      N        0.42030    0.47230    0.25660    1.000
    C95      C        0.42340    0.43670    0.33230    1.000
    H113     H        0.40230    0.43880    0.38960    1.000
    C96      C        0.45750    0.39810    0.32430    1.000
    H114     H        0.45970    0.37370    0.37600    1.000
    C97      C        0.48840    0.39500    0.24100    1.000
    C98      C        0.48530    0.43060    0.16480    1.000
    H115     H        0.50640    0.42850    0.10750    1.000
    C99      C        0.45120    0.46930    0.17280    1.000
    H116     H        0.44910    0.49360    0.12110    1.000
    C100     C        0.76040    0.01200    0.75600    1.000
    H117     H        0.73540    0.99500    0.79280    1.000
    C101     C        0.77020    0.06180    0.77570    1.000
    C102     C        0.80680    0.08670    0.72170    1.000
    H118     H        0.81350    0.12070    0.73520    1.000
    C103     C        0.83380    0.06170    0.64790    1.000
    H119     H        0.85880    0.07870    0.61100    1.000
    N12      N        0.82400    0.01190    0.62810    1.000
    C104     C        0.78740    0.98700    0.68200    1.000
    H120     H        0.78070    0.95300    0.66850    1.000
    Ti3      Ti       0.72582    0.80573    0.92871    1.000
    O13      O        0.67430    0.82250    0.83090    1.000
    N13      N        0.72680    0.73670    0.83980    1.000
    H121     H        0.74620    0.71170    0.87970    1.000
    N14      N        0.78380    0.82080    0.80890    1.000
    H122     H        0.76900    0.84370    0.75770    1.000
    O14      O        0.73750    0.87220    0.95950    1.000
    C105     C        0.79920    0.77430    0.75660    1.000
    H123     H        0.82250    0.75590    0.80210    1.000
    C106     C        0.82850    0.84580    0.85360    1.000
    H124     H        0.85280    0.85190    0.79900    1.000
    H125     H        0.84410    0.82260    0.90210    1.000
    C107     C        0.58930    0.80286    0.62290    1.000
    H126     H        0.57010    0.82150    0.57600    1.000
    C108     C        0.61800    0.82723    0.69470    1.000
    C109     C        0.64598    0.79993    0.76320    1.000
    C110     C        0.64530    0.74827    0.75990    1.000
    C111     C        0.61660    0.72390    0.68810    1.000
    H127     H        0.61610    0.68860    0.68590    1.000
    C112     C        0.58860    0.75120    0.61960    1.000
    C113     C        0.85823    0.92760    0.91130    1.000
    H128     H        0.88820    0.92020    0.87650    1.000
    C114     C        0.85400    0.97150    0.96600    1.000
    C115     C        0.81010    0.98229    0.01690    1.000
    H129     H        0.80730    0.01230    0.05430    1.000
    C116     C        0.77050    0.94920    0.01300    1.000
    C117     C        0.77466    0.90535    0.95830    1.000
    C118     C        0.81850    0.89454    0.90740    1.000
    Cd5      Cd       0.04718    0.12627    0.96110    1.000
    C119     C        0.67530    0.71720    0.83150    1.000
    H130     H        0.65940    0.71750    0.89880    1.000
    H131     H        0.67620    0.68240    0.80720    1.000
    C120     C        0.61780    0.88560    0.69870    1.000
    C121     C        0.82470    0.78160    0.65690    1.000
    H132     H        0.85560    0.80100    0.66720    1.000
    H133     H        0.80270    0.80080    0.61150    1.000
    C122     C        0.72090    0.96170    0.07040    1.000
    C123     C        0.67170    0.90520    0.68540    1.000
    H134     H        0.69170    0.89560    0.74410    1.000
    H135     H        0.67120    0.94150    0.67950    1.000
    H136     H        0.68630    0.89080    0.62430    1.000
    C124     C        0.79250    0.69860    0.59600    1.000
    H137     H        0.76970    0.71330    0.54550    1.000
    H138     H        0.80350    0.66580    0.57010    1.000
    C125     C        0.75250    0.74220    0.74170    1.000
    H139     H        0.72960    0.76040    0.69520    1.000
    C126     C        0.67710    0.96130    0.00040    1.000
    H140     H        0.68080    0.98790    0.95030    1.000
    H141     H        0.64650    0.96670    0.03910    1.000
    H142     H        0.67530    0.92910    0.96590    1.000
    C127     C        0.72340    0.01420    0.12470    1.000
    H143     H        0.75310    0.01570    0.16740    1.000
    H144     H        0.69360    0.01880    0.16640    1.000
    H145     H        0.72490    0.04060    0.07370    1.000
    C128     C        0.71300    0.92270    0.15390    1.000
    H146     H        0.70560    0.89040    0.12320    1.000
    H147     H        0.68520    0.93290    0.19690    1.000
    H148     H        0.74330    0.92000    0.19480    1.000
    C129     C        0.76530    0.69130    0.69190    1.000
    H149     H        0.78590    0.67140    0.73880    1.000
    H150     H        0.73420    0.67270    0.67880    1.000
    C130     C        0.59630    0.90250    0.79590    1.000
    H151     H        0.56250    0.88940    0.80290    1.000
    H152     H        0.59540    0.93890    0.79730    1.000
    H153     H        0.61690    0.89040    0.85170    1.000
    C131     C        0.50970    0.73300    0.53000    1.000
    H154     H        0.49560    0.76200    0.55970    1.000
    C132     C        0.58750    0.90810    0.61290    1.000
    H155     H        0.60620    0.90530    0.54970    1.000
    H156     H        0.58100    0.94330    0.62740    1.000
    H157     H        0.55590    0.89030    0.60650    1.000
    C133     C        0.83760    0.73210    0.60760    1.000
    H158     H        0.85230    0.73850    0.54040    1.000
    H159     H        0.86300    0.71490    0.64910    1.000
    Br5      Br       0.10250    0.09170    0.11920    1.000
    O15      O        0.07350    0.20580    0.99180    1.000
    C134     C        0.03340    0.21550    0.04000    1.000
    O16      O        0.00180    0.18480    0.06290    1.000
    C135     C        0.02310    0.26830    0.07200    1.000
    H160     H        0.05050    0.28970    0.04980    1.000
    H161     H        0.99200    0.27970    0.04050    1.000
    H162     H        0.01990    0.26990    0.14520    1.000
    C136     C        0.93800    0.99980    0.88650    1.000
    H163     H        0.93500    0.97670    0.83270    1.000
    C137     C        0.90130    0.00240    0.96000    1.000
    C138     C        0.90570    0.03620    0.03900    1.000
    H164     H        0.88060    0.03790    0.08920    1.000
    C139     C        0.94680    0.06740    0.04410    1.000
    H165     H        0.94980    0.09050    0.09800    1.000
    N15      N        0.98350    0.06480    0.97050    1.000
    C140     C        0.97910    0.03100    0.89170    1.000
    H166     H        0.00420    0.02920    0.84140    1.000
    N16      N        0.49760    0.66660    0.42640    1.000
    C141     C        0.57180    0.67790    0.50860    1.000
    H167     H        0.60440    0.66610    0.52270    1.000
    C142     C        0.54290    0.65210    0.44500    1.000
    H168     H        0.55560    0.62300    0.41380    1.000
    C143     C        0.55640    0.71960    0.55260    1.000
    C144     C        0.48310    0.70540    0.46600    1.000
    H169     H        0.45050    0.71650    0.45050    1.000
    Cd6      Cd       0.02861    0.14210    0.01480    1.000
    Br6      Br       0.07420    0.10360    0.17590    1.000
    O17      O        0.97600    0.19980    0.11290    1.000
    O18      O        0.05370    0.21840    0.03600    1.000
    C145     C        0.00260    0.28310    0.09500    1.000
    H170     H        0.03240    0.30090    0.07210    1.000
    H171     H        0.97420    0.29270    0.05330    1.000
    H172     H        0.99590    0.29160    0.16560    1.000
    C146     C        0.01110    0.22780    0.08600    1.000
    N17      N        0.97230    0.07970    0.00660    1.000
    C147     C        0.93670    0.07660    0.08230    1.000
    H173     H        0.93880    0.09770    0.13960    1.000
    C148     C        0.89810    0.04250    0.07430    1.000
    H174     H        0.87370    0.04030    0.12600    1.000
    C149     C        0.89500    0.01160    0.99100    1.000
    C150     C        0.93060    0.01470    0.91480    1.000
    H175     H        0.92850    0.99360    0.85750    1.000
    C151     C        0.96930    0.04880    0.92280    1.000
    H176     H        0.99360    0.05090    0.87110    1.000
    C152     C        0.51200    0.73960    0.50600    1.000
    H177     H        0.49500    0.76460    0.54280    1.000
    C153     C        0.56180    0.72980    0.52570    1.000
    C154     C        0.58670    0.69320    0.47170    1.000
    H178     H        0.62070    0.68650    0.48520    1.000
    C155     C        0.56170    0.66620    0.39790    1.000
    H179     H        0.57870    0.64120    0.36100    1.000
    N18      N        0.51190    0.67600    0.37810    1.000
    C156     C        0.48700    0.71260    0.43200    1.000
    H180     H        0.45300    0.71930    0.41850    1.000
    Ti4      Ti       0.27418    0.19427    0.42871    1.000
    O19      O        0.32570    0.17750    0.33090    1.000
    N19      N        0.27320    0.26330    0.33980    1.000
    H181     H        0.25380    0.28830    0.37970    1.000
    N20      N        0.21620    0.17920    0.30890    1.000
    H182     H        0.23100    0.15630    0.25770    1.000
    O20      O        0.26250    0.12780    0.45950    1.000
    C157     C        0.20080    0.22570    0.25660    1.000
    H183     H        0.17750    0.24410    0.30210    1.000
    C158     C        0.17150    0.15420    0.35360    1.000
    H184     H        0.14720    0.14810    0.29900    1.000
    H185     H        0.15590    0.17740    0.40210    1.000
    C159     C        0.41070    0.19714    0.12290    1.000
    H186     H        0.42990    0.17850    0.07600    1.000
    C160     C        0.38200    0.17277    0.19470    1.000
    C161     C        0.35402    0.20007    0.26320    1.000
    C162     C        0.35470    0.25173    0.25990    1.000
    C163     C        0.38340    0.27610    0.18810    1.000
    H187     H        0.38390    0.31140    0.18590    1.000
    C164     C        0.41140    0.24880    0.11960    1.000
    C165     C        0.14177    0.07240    0.41130    1.000
    H188     H        0.11180    0.07980    0.37650    1.000
    C166     C        0.14600    0.02850    0.46600    1.000
    C167     C        0.18990    0.01771    0.51690    1.000
    H189     H        0.19270    0.98770    0.55430    1.000
    C168     C        0.22950    0.05080    0.51300    1.000
    C169     C        0.22534    0.09465    0.45830    1.000
    C170     C        0.18150    0.10546    0.40740    1.000
    Cd7      Cd       0.95282    0.87373    0.46110    1.000
    C171     C        0.32470    0.28280    0.33150    1.000
    H190     H        0.34060    0.28250    0.39880    1.000
    H191     H        0.32380    0.31760    0.30720    1.000
    C172     C        0.38220    0.11440    0.19870    1.000
    C173     C        0.17530    0.21840    0.15690    1.000
    H192     H        0.14440    0.19900    0.16720    1.000
    H193     H        0.19730    0.19920    0.11150    1.000
    C174     C        0.27910    0.03830    0.57040    1.000
    C175     C        0.32830    0.09480    0.18540    1.000
    H194     H        0.30830    0.10440    0.24410    1.000
    H195     H        0.32880    0.05850    0.17950    1.000
    H196     H        0.31370    0.10920    0.12430    1.000
    C176     C        0.20750    0.30140    0.09600    1.000
    H197     H        0.23030    0.28670    0.04550    1.000
    H198     H        0.19650    0.33420    0.07010    1.000
    C177     C        0.24750    0.25780    0.24170    1.000
    H199     H        0.27040    0.23960    0.19520    1.000
    C178     C        0.32290    0.03870    0.50040    1.000
    H200     H        0.31920    0.01210    0.45030    1.000
    H201     H        0.35350    0.03330    0.53910    1.000
    H202     H        0.32470    0.07090    0.46590    1.000
    C179     C        0.27660    0.98580    0.62470    1.000
    H203     H        0.24690    0.98430    0.66740    1.000
    H204     H        0.30640    0.98120    0.66640    1.000
    H205     H        0.27510    0.95940    0.57370    1.000
    C180     C        0.28700    0.07730    0.65390    1.000
    H206     H        0.29440    0.10960    0.62320    1.000
    H207     H        0.31480    0.06710    0.69690    1.000
    H208     H        0.25670    0.08000    0.69480    1.000
    C181     C        0.23470    0.30870    0.19190    1.000
    H209     H        0.21410    0.32860    0.23880    1.000
    H210     H        0.26580    0.32730    0.17880    1.000
    C182     C        0.40370    0.09750    0.29590    1.000
    H211     H        0.43750    0.11060    0.30290    1.000
    H212     H        0.40460    0.06110    0.29730    1.000
    H213     H        0.38310    0.10960    0.35170    1.000
    C183     C        0.49030    0.26700    0.03000    1.000
    H214     H        0.50440    0.23800    0.05970    1.000
    C184     C        0.41250    0.09190    0.11290    1.000
    H215     H        0.39380    0.09470    0.04970    1.000
    H216     H        0.41900    0.05670    0.12740    1.000
    H217     H        0.44410    0.10970    0.10650    1.000
    C185     C        0.16240    0.26790    0.10760    1.000
    H218     H        0.14770    0.26150    0.04040    1.000
    H219     H        0.13700    0.28510    0.14910    1.000
    Br7      Br       0.89750    0.90830    0.61920    1.000
    O21      O        0.92650    0.79420    0.49180    1.000
    C186     C        0.96660    0.78450    0.54000    1.000
    O22      O        0.99820    0.81520    0.56290    1.000
    C187     C        0.97690    0.73170    0.57200    1.000
    H220     H        0.94950    0.71030    0.54980    1.000
    H221     H        0.00800    0.72030    0.54050    1.000
    H222     H        0.98010    0.73010    0.64520    1.000
    C188     C        0.06200    0.00020    0.38650    1.000
    H223     H        0.06500    0.02330    0.33270    1.000
    C189     C        0.09870    0.99760    0.46000    1.000
    C190     C        0.09430    0.96380    0.53900    1.000
    H224     H        0.11940    0.96210    0.58920    1.000
    C191     C        0.05320    0.93260    0.54410    1.000
    H225     H        0.05020    0.90950    0.59800    1.000
    N21      N        0.01650    0.93520    0.47050    1.000
    C192     C        0.02090    0.96900    0.39170    1.000
    H226     H        0.99580    0.97080    0.34140    1.000
    N22      N        0.50240    0.33340    0.92640    1.000
    C193     C        0.42820    0.32210    0.00860    1.000
    H227     H        0.39560    0.33390    0.02270    1.000
    C194     C        0.45710    0.34790    0.94500    1.000
    H228     H        0.44440    0.37700    0.91380    1.000
    C195     C        0.44360    0.28040    0.05260    1.000
    C196     C        0.51690    0.29460    0.96600    1.000
    H229     H        0.54950    0.28350    0.95050    1.000
    Cd8      Cd       0.97139    0.85790    0.51480    1.000
    Br8      Br       0.92580    0.89640    0.67590    1.000
    O23      O        0.02400    0.80020    0.61290    1.000
    O24      O        0.94630    0.78160    0.53600    1.000
    C197     C        0.99740    0.71690    0.59500    1.000
    H230     H        0.96760    0.69910    0.57210    1.000
    H231     H        0.02580    0.70730    0.55330    1.000
    H232     H        0.00410    0.70840    0.66560    1.000
    C198     C        0.98890    0.77220    0.58600    1.000
    N23      N        0.02770    0.92030    0.50660    1.000
    C199     C        0.06330    0.92340    0.58230    1.000
    H233     H        0.06120    0.90230    0.63960    1.000
    C200     C        0.10190    0.95750    0.57430    1.000
    H234     H        0.12630    0.95970    0.62600    1.000
    C201     C        0.10500    0.98840    0.49100    1.000
    C202     C        0.06940    0.98530    0.41480    1.000
    H235     H        0.07150    0.00640    0.35750    1.000
    C203     C        0.03070    0.95120    0.42280    1.000
    H236     H        0.00640    0.94910    0.37110    1.000
    C204     C        0.48800    0.26040    0.00600    1.000
    H237     H        0.50500    0.23540    0.04280    1.000
    C205     C        0.43820    0.27020    0.02570    1.000
    C206     C        0.41330    0.30680    0.97170    1.000
    H238     H        0.37930    0.31350    0.98520    1.000
    C207     C        0.43830    0.33380    0.89790    1.000
    H239     H        0.42130    0.35880    0.86100    1.000
    N24      N        0.48810    0.32400    0.87810    1.000
    C208     C        0.51300    0.28740    0.93200    1.000
    H240     H        0.54700    0.28070    0.91850    1.000
    Ti5      Ti       0.19427    0.27418    0.57129    1.000
    O25      O        0.17750    0.32570    0.66910    1.000
    N25      N        0.26330    0.27320    0.66020    1.000
    H241     H        0.28830    0.25380    0.62030    1.000
    N26      N        0.17920    0.21620    0.69110    1.000
    H242     H        0.15630    0.23100    0.74230    1.000
    O26      O        0.12780    0.26250    0.54050    1.000
    C209     C        0.22570    0.20080    0.74340    1.000
    H243     H        0.24410    0.17750    0.69790    1.000
    C210     C        0.15420    0.17150    0.64640    1.000
    H244     H        0.14810    0.14720    0.70100    1.000
    H245     H        0.17740    0.15590    0.59790    1.000
    C211     C        0.19714    0.41070    0.87710    1.000
    H246     H        0.17850    0.42990    0.92400    1.000
    C212     C        0.17277    0.38200    0.80530    1.000
    C213     C        0.20007    0.35402    0.73680    1.000
    C214     C        0.25173    0.35470    0.74010    1.000
    C215     C        0.27610    0.38340    0.81190    1.000
    H247     H        0.31140    0.38390    0.81410    1.000
    C216     C        0.24880    0.41140    0.88040    1.000
    C217     C        0.07240    0.14177    0.58870    1.000
    H248     H        0.07980    0.11180    0.62350    1.000
    C218     C        0.02850    0.14600    0.53400    1.000
    C219     C        0.01771    0.18990    0.48310    1.000
    H249     H        0.98770    0.19270    0.44570    1.000
    C220     C        0.05080    0.22950    0.48700    1.000
    C221     C        0.09465    0.22534    0.54170    1.000
    C222     C        0.10546    0.18150    0.59260    1.000
    Cd9      Cd       0.87373    0.95282    0.53890    1.000
    C223     C        0.28280    0.32470    0.66850    1.000
    H250     H        0.28250    0.34060    0.60120    1.000
    H251     H        0.31760    0.32380    0.69280    1.000
    C224     C        0.11440    0.38220    0.80130    1.000
    C225     C        0.21840    0.17530    0.84310    1.000
    H252     H        0.19900    0.14440    0.83280    1.000
    H253     H        0.19920    0.19730    0.88850    1.000
    C226     C        0.03830    0.27910    0.42960    1.000
    C227     C        0.09480    0.32830    0.81460    1.000
    H254     H        0.10440    0.30830    0.75590    1.000
    H255     H        0.05850    0.32880    0.82050    1.000
    H256     H        0.10920    0.31370    0.87570    1.000
    C228     C        0.30140    0.20750    0.90400    1.000
    H257     H        0.28670    0.23030    0.95450    1.000
    H258     H        0.33420    0.19650    0.92990    1.000
    C229     C        0.25780    0.24750    0.75830    1.000
    H259     H        0.23960    0.27040    0.80480    1.000
    C230     C        0.03870    0.32290    0.49960    1.000
    H260     H        0.01210    0.31920    0.54970    1.000
    H261     H        0.03330    0.35350    0.46090    1.000
    H262     H        0.07090    0.32470    0.53410    1.000
    C231     C        0.98580    0.27660    0.37530    1.000
    H263     H        0.98430    0.24690    0.33260    1.000
    H264     H        0.98120    0.30640    0.33360    1.000
    H265     H        0.95940    0.27510    0.42630    1.000
    C232     C        0.07730    0.28700    0.34610    1.000
    H266     H        0.10960    0.29440    0.37680    1.000
    H267     H        0.06710    0.31480    0.30310    1.000
    H268     H        0.08000    0.25670    0.30520    1.000
    C233     C        0.30870    0.23470    0.80810    1.000
    H269     H        0.32860    0.21410    0.76120    1.000
    H270     H        0.32730    0.26580    0.82120    1.000
    C234     C        0.09750    0.40370    0.70410    1.000
    H271     H        0.11060    0.43750    0.69710    1.000
    H272     H        0.06110    0.40460    0.70270    1.000
    H273     H        0.10960    0.38310    0.64830    1.000
    C235     C        0.26700    0.49030    0.97000    1.000
    H274     H        0.23800    0.50440    0.94030    1.000
    C236     C        0.09190    0.41250    0.88710    1.000
    H275     H        0.09470    0.39380    0.95030    1.000
    H276     H        0.05670    0.41900    0.87260    1.000
    H277     H        0.10970    0.44410    0.89350    1.000
    C237     C        0.26790    0.16240    0.89240    1.000
    H278     H        0.26150    0.14770    0.95960    1.000
    H279     H        0.28510    0.13700    0.85090    1.000
    Br9      Br       0.90830    0.89750    0.38080    1.000
    O27      O        0.79420    0.92650    0.50820    1.000
    C238     C        0.78450    0.96660    0.46000    1.000
    O28      O        0.81520    0.99820    0.43710    1.000
    C239     C        0.73170    0.97690    0.42800    1.000
    H280     H        0.71030    0.94950    0.45020    1.000
    H281     H        0.72030    0.00800    0.45950    1.000
    H282     H        0.73010    0.98010    0.35480    1.000
    C240     C        0.00020    0.06200    0.61350    1.000
    H283     H        0.02330    0.06500    0.66730    1.000
    C241     C        0.99760    0.09870    0.54000    1.000
    C242     C        0.96380    0.09430    0.46100    1.000
    H284     H        0.96210    0.11940    0.41080    1.000
    C243     C        0.93260    0.05320    0.45590    1.000
    H285     H        0.90950    0.05020    0.40200    1.000
    N27      N        0.93520    0.01650    0.52950    1.000
    C244     C        0.96900    0.02090    0.60830    1.000
    H286     H        0.97080    0.99580    0.65860    1.000
    N28      N        0.33340    0.50240    0.07360    1.000
    C245     C        0.32210    0.42820    0.99140    1.000
    H287     H        0.33390    0.39560    0.97730    1.000
    C246     C        0.34790    0.45710    0.05500    1.000
    H288     H        0.37700    0.44440    0.08620    1.000
    C247     C        0.28040    0.44360    0.94740    1.000
    C248     C        0.29460    0.51690    0.03400    1.000
    H289     H        0.28350    0.54950    0.04950    1.000
    Cd10     Cd       0.85790    0.97139    0.48520    1.000
    Br10     Br       0.89640    0.92580    0.32410    1.000
    O29      O        0.80020    0.02400    0.38710    1.000
    O30      O        0.78160    0.94630    0.46400    1.000
    C249     C        0.71690    0.99740    0.40500    1.000
    H290     H        0.69910    0.96760    0.42790    1.000
    H291     H        0.70730    0.02580    0.44670    1.000
    H292     H        0.70840    0.00410    0.33440    1.000
    C250     C        0.77220    0.98890    0.41400    1.000
    N29      N        0.92030    0.02770    0.49340    1.000
    C251     C        0.92340    0.06330    0.41770    1.000
    H293     H        0.90230    0.06120    0.36040    1.000
    C252     C        0.95750    0.10190    0.42570    1.000
    H294     H        0.95970    0.12630    0.37400    1.000
    C253     C        0.98840    0.10500    0.50900    1.000
    C254     C        0.98530    0.06940    0.58520    1.000
    H295     H        0.00640    0.07150    0.64250    1.000
    C255     C        0.95120    0.03070    0.57720    1.000
    H296     H        0.94910    0.00640    0.62890    1.000
    C256     C        0.26040    0.48800    0.99400    1.000
    H297     H        0.23540    0.50500    0.95720    1.000
    C257     C        0.27020    0.43820    0.97430    1.000
    C258     C        0.30680    0.41330    0.02830    1.000
    H298     H        0.31350    0.37930    0.01480    1.000
    C259     C        0.33380    0.43830    0.10210    1.000
    H299     H        0.35880    0.42130    0.13900    1.000
    N30      N        0.32400    0.48810    0.12190    1.000
    C260     C        0.28740    0.51300    0.06800    1.000
    H300     H        0.28070    0.54700    0.08150    1.000
    Ti6      Ti       0.80573    0.72582    0.07129    1.000
    O31      O        0.82250    0.67430    0.16910    1.000
    N31      N        0.73670    0.72680    0.16020    1.000
    H301     H        0.71170    0.74620    0.12030    1.000
    N32      N        0.82080    0.78380    0.19110    1.000
    H302     H        0.84370    0.76900    0.24230    1.000
    O32      O        0.87220    0.73750    0.04050    1.000
    C261     C        0.77430    0.79920    0.24340    1.000
    H303     H        0.75590    0.82250    0.19790    1.000
    C262     C        0.84580    0.82850    0.14640    1.000
    H304     H        0.85190    0.85280    0.20100    1.000
    H305     H        0.82260    0.84410    0.09790    1.000
    C263     C        0.80286    0.58930    0.37710    1.000
    H306     H        0.82150    0.57010    0.42400    1.000
    C264     C        0.82723    0.61800    0.30530    1.000
    C265     C        0.79993    0.64598    0.23680    1.000
    C266     C        0.74827    0.64530    0.24010    1.000
    C267     C        0.72390    0.61660    0.31190    1.000
    H307     H        0.68860    0.61610    0.31410    1.000
    C268     C        0.75120    0.58860    0.38040    1.000
    C269     C        0.92760    0.85823    0.08870    1.000
    H308     H        0.92020    0.88820    0.12350    1.000
    C270     C        0.97150    0.85400    0.03400    1.000
    C271     C        0.98229    0.81010    0.98310    1.000
    H309     H        0.01230    0.80730    0.94570    1.000
    C272     C        0.94920    0.77050    0.98700    1.000
    C273     C        0.90535    0.77466    0.04170    1.000
    C274     C        0.89454    0.81850    0.09260    1.000
    Cd11     Cd       0.12627    0.04718    0.03890    1.000
    C275     C        0.71720    0.67530    0.16850    1.000
    H310     H        0.71750    0.65940    0.10120    1.000
    H311     H        0.68240    0.67620    0.19280    1.000
    C276     C        0.88560    0.61780    0.30130    1.000
    C277     C        0.78160    0.82470    0.34310    1.000
    H312     H        0.80100    0.85560    0.33280    1.000
    H313     H        0.80080    0.80270    0.38850    1.000
    C278     C        0.96170    0.72090    0.92960    1.000
    C279     C        0.90520    0.67170    0.31460    1.000
    H314     H        0.89560    0.69170    0.25590    1.000
    H315     H        0.94150    0.67120    0.32050    1.000
    H316     H        0.89080    0.68630    0.37570    1.000
    C280     C        0.69860    0.79250    0.40400    1.000
    H317     H        0.71330    0.76970    0.45450    1.000
    H318     H        0.66580    0.80350    0.42990    1.000
    C281     C        0.74220    0.75250    0.25830    1.000
    H319     H        0.76040    0.72960    0.30480    1.000
    C282     C        0.96130    0.67710    0.99960    1.000
    H320     H        0.98790    0.68080    0.04970    1.000
    H321     H        0.96670    0.64650    0.96090    1.000
    H322     H        0.92910    0.67530    0.03410    1.000
    C283     C        0.01420    0.72340    0.87530    1.000
    H323     H        0.01570    0.75310    0.83260    1.000
    H324     H        0.01880    0.69360    0.83360    1.000
    H325     H        0.04060    0.72490    0.92630    1.000
    C284     C        0.92270    0.71300    0.84610    1.000
    H326     H        0.89040    0.70560    0.87680    1.000
    H327     H        0.93290    0.68520    0.80310    1.000
    H328     H        0.92000    0.74330    0.80520    1.000
    C285     C        0.69130    0.76530    0.30810    1.000
    H329     H        0.67140    0.78590    0.26120    1.000
    H330     H        0.67270    0.73420    0.32120    1.000
    C286     C        0.90250    0.59630    0.20410    1.000
    H331     H        0.88940    0.56250    0.19710    1.000
    H332     H        0.93890    0.59540    0.20270    1.000
    H333     H        0.89040    0.61690    0.14830    1.000
    C287     C        0.73300    0.50970    0.47000    1.000
    H334     H        0.76200    0.49560    0.44030    1.000
    C288     C        0.90810    0.58750    0.38710    1.000
    H335     H        0.90530    0.60620    0.45030    1.000
    H336     H        0.94330    0.58100    0.37260    1.000
    H337     H        0.89030    0.55590    0.39350    1.000
    C289     C        0.73210    0.83760    0.39240    1.000
    H338     H        0.73850    0.85230    0.45960    1.000
    H339     H        0.71490    0.86300    0.35090    1.000
    Br11     Br       0.09170    0.10250    0.88080    1.000
    O33      O        0.20580    0.07350    0.00820    1.000
    C290     C        0.21550    0.03340    0.96000    1.000
    O34      O        0.18480    0.00180    0.93710    1.000
    C291     C        0.26830    0.02310    0.92800    1.000
    H340     H        0.28970    0.05050    0.95020    1.000
    H341     H        0.27970    0.99200    0.95950    1.000
    H342     H        0.26990    0.01990    0.85480    1.000
    C292     C        0.99980    0.93800    0.11350    1.000
    H343     H        0.97670    0.93500    0.16730    1.000
    C293     C        0.00240    0.90130    0.04000    1.000
    C294     C        0.03620    0.90570    0.96100    1.000
    H344     H        0.03790    0.88060    0.91080    1.000
    C295     C        0.06740    0.94680    0.95590    1.000
    H345     H        0.09050    0.94980    0.90200    1.000
    N33      N        0.06480    0.98350    0.02950    1.000
    C296     C        0.03100    0.97910    0.10830    1.000
    H346     H        0.02920    0.00420    0.15860    1.000
    N34      N        0.66660    0.49760    0.57360    1.000
    C297     C        0.67790    0.57180    0.49140    1.000
    H347     H        0.66610    0.60440    0.47730    1.000
    C298     C        0.65210    0.54290    0.55500    1.000
    H348     H        0.62300    0.55560    0.58620    1.000
    C299     C        0.71960    0.55640    0.44740    1.000
    C300     C        0.70540    0.48310    0.53400    1.000
    H349     H        0.71650    0.45050    0.54950    1.000
    Cd12     Cd       0.14210    0.02861    0.98520    1.000
    Br12     Br       0.10360    0.07420    0.82410    1.000
    O35      O        0.19980    0.97600    0.88710    1.000
    O36      O        0.21840    0.05370    0.96400    1.000
    C301     C        0.28310    0.00260    0.90500    1.000
    H350     H        0.30090    0.03240    0.92790    1.000
    H351     H        0.29270    0.97420    0.94670    1.000
    H352     H        0.29160    0.99590    0.83440    1.000
    C302     C        0.22780    0.01110    0.91400    1.000
    N35      N        0.07970    0.97230    0.99340    1.000
    C303     C        0.07660    0.93670    0.91770    1.000
    H353     H        0.09770    0.93880    0.86040    1.000
    C304     C        0.04250    0.89810    0.92570    1.000
    H354     H        0.04030    0.87370    0.87400    1.000
    C305     C        0.01160    0.89500    0.00900    1.000
    C306     C        0.01470    0.93060    0.08520    1.000
    H355     H        0.99360    0.92850    0.14250    1.000
    C307     C        0.04880    0.96930    0.07720    1.000
    H356     H        0.05090    0.99360    0.12890    1.000
    C308     C        0.73960    0.51200    0.49400    1.000
    H357     H        0.76460    0.49500    0.45720    1.000
    C309     C        0.72980    0.56180    0.47430    1.000
    C310     C        0.69320    0.58670    0.52830    1.000
    H358     H        0.68650    0.62070    0.51480    1.000
    C311     C        0.66620    0.56170    0.60210    1.000
    H359     H        0.64120    0.57870    0.63900    1.000
    N36      N        0.67600    0.51190    0.62190    1.000
    C312     C        0.71260    0.48700    0.56800    1.000
    H360     H        0.71930    0.45300    0.58150    1.000
    Ti7      Ti       0.77418    0.30573    0.32129    1.000
    O37      O        0.82570    0.32250    0.41910    1.000
    N37      N        0.77320    0.23670    0.41020    1.000
    H361     H        0.75380    0.21170    0.37030    1.000
    N38      N        0.71620    0.32080    0.44110    1.000
    H362     H        0.73100    0.34370    0.49230    1.000
    O38      O        0.76250    0.37220    0.29050    1.000
    C313     C        0.70080    0.27430    0.49340    1.000
    H363     H        0.67750    0.25590    0.44790    1.000
    C314     C        0.67150    0.34580    0.39640    1.000
    H364     H        0.64720    0.35190    0.45100    1.000
    H365     H        0.65590    0.32260    0.34790    1.000
    C315     C        0.91070    0.30286    0.62710    1.000
    H366     H        0.92990    0.32150    0.67400    1.000
    C316     C        0.88200    0.32723    0.55530    1.000
    C317     C        0.85402    0.29993    0.48680    1.000
    C318     C        0.85470    0.24827    0.49010    1.000
    C319     C        0.88340    0.22390    0.56190    1.000
    H367     H        0.88390    0.18860    0.56410    1.000
    C320     C        0.91140    0.25120    0.63040    1.000
    C321     C        0.64177    0.42760    0.33870    1.000
    H368     H        0.61180    0.42020    0.37350    1.000
    C322     C        0.64600    0.47150    0.28400    1.000
    C323     C        0.68990    0.48229    0.23310    1.000
    H369     H        0.69270    0.51230    0.19570    1.000
    C324     C        0.72950    0.44920    0.23700    1.000
    C325     C        0.72534    0.40535    0.29170    1.000
    C326     C        0.68150    0.39454    0.34260    1.000
    Cd13     Cd       0.45282    0.62627    0.28890    1.000
    C327     C        0.82470    0.21720    0.41850    1.000
    H370     H        0.84060    0.21750    0.35120    1.000
    H371     H        0.82380    0.18240    0.44280    1.000
    C328     C        0.88220    0.38560    0.55130    1.000
    C329     C        0.67530    0.28160    0.59310    1.000
    H372     H        0.64440    0.30100    0.58280    1.000
    H373     H        0.69730    0.30080    0.63850    1.000
    C330     C        0.77910    0.46170    0.17960    1.000
    C331     C        0.82830    0.40520    0.56460    1.000
    H374     H        0.80830    0.39560    0.50590    1.000
    H375     H        0.82880    0.44150    0.57050    1.000
    H376     H        0.81370    0.39080    0.62570    1.000
    C332     C        0.70750    0.19860    0.65400    1.000
    H377     H        0.73030    0.21330    0.70450    1.000
    H378     H        0.69650    0.16580    0.67990    1.000
    C333     C        0.74750    0.24220    0.50830    1.000
    H379     H        0.77040    0.26040    0.55480    1.000
    C334     C        0.82290    0.46130    0.24960    1.000
    H380     H        0.81920    0.48790    0.29970    1.000
    H381     H        0.85350    0.46670    0.21090    1.000
    H382     H        0.82470    0.42910    0.28410    1.000
    C335     C        0.77660    0.51420    0.12530    1.000
    H383     H        0.74690    0.51570    0.08260    1.000
    H384     H        0.80640    0.51880    0.08360    1.000
    H385     H        0.77510    0.54060    0.17630    1.000
    C336     C        0.78700    0.42270    0.09610    1.000
    H386     H        0.79440    0.39040    0.12680    1.000
    H387     H        0.81480    0.43290    0.05310    1.000
    H388     H        0.75670    0.42000    0.05520    1.000
    C337     C        0.73470    0.19130    0.55810    1.000
    H389     H        0.71410    0.17140    0.51120    1.000
    H390     H        0.76580    0.17270    0.57120    1.000
    C338     C        0.90370    0.40250    0.45410    1.000
    H391     H        0.93750    0.38940    0.44710    1.000
    H392     H        0.90460    0.43890    0.45270    1.000
    H393     H        0.88310    0.39040    0.39830    1.000
    C339     C        0.99030    0.23300    0.72000    1.000
    H394     H        0.00440    0.26200    0.69030    1.000
    C340     C        0.91250    0.40810    0.63710    1.000
    H395     H        0.89380    0.40530    0.70030    1.000
    H396     H        0.91900    0.44330    0.62260    1.000
    H397     H        0.94410    0.39030    0.64350    1.000
    C341     C        0.66240    0.23210    0.64240    1.000
    H398     H        0.64770    0.23850    0.70960    1.000
    H399     H        0.63700    0.21490    0.60090    1.000
    Br13     Br       0.39750    0.59170    0.13080    1.000
    O39      O        0.42650    0.70580    0.25820    1.000
    C342     C        0.46660    0.71550    0.21000    1.000
    O40      O        0.49820    0.68480    0.18710    1.000
    C343     C        0.47690    0.76830    0.17800    1.000
    H400     H        0.44950    0.78970    0.20020    1.000
    H401     H        0.50800    0.77970    0.20950    1.000
    H402     H        0.48010    0.76990    0.10480    1.000
    C344     C        0.56200    0.49980    0.36350    1.000
    H403     H        0.56500    0.47670    0.41730    1.000
    C345     C        0.59870    0.50240    0.29000    1.000
    C346     C        0.59430    0.53620    0.21100    1.000
    H404     H        0.61940    0.53790    0.16080    1.000
    C347     C        0.55320    0.56740    0.20590    1.000
    H405     H        0.55020    0.59050    0.15200    1.000
    N39      N        0.51650    0.56480    0.27950    1.000
    C348     C        0.52090    0.53100    0.35830    1.000
    H406     H        0.49580    0.52920    0.40860    1.000
    N40      N        0.00240    0.16660    0.82360    1.000
    C349     C        0.92820    0.17790    0.74140    1.000
    H407     H        0.89560    0.16610    0.72730    1.000
    C350     C        0.95710    0.15210    0.80500    1.000
    H408     H        0.94440    0.12300    0.83620    1.000
    C351     C        0.94360    0.21960    0.69740    1.000
    C352     C        0.01690    0.20540    0.78400    1.000
    H409     H        0.04950    0.21650    0.79950    1.000
    Cd14     Cd       0.47139    0.64210    0.23520    1.000
    Br14     Br       0.42580    0.60360    0.07410    1.000
    O41      O        0.52400    0.69980    0.13710    1.000
    O42      O        0.44630    0.71840    0.21400    1.000
    C353     C        0.49740    0.78310    0.15500    1.000
    H410     H        0.46760    0.80090    0.17790    1.000
    H411     H        0.52580    0.79270    0.19670    1.000
    H412     H        0.50410    0.79160    0.08440    1.000
    C354     C        0.48890    0.72780    0.16400    1.000
    N41      N        0.52770    0.57970    0.24340    1.000
    C355     C        0.56330    0.57660    0.16770    1.000
    H413     H        0.56120    0.59770    0.11040    1.000
    C356     C        0.60190    0.54250    0.17570    1.000
    H414     H        0.62630    0.54030    0.12400    1.000
    C357     C        0.60500    0.51160    0.25900    1.000
    C358     C        0.56940    0.51470    0.33520    1.000
    H415     H        0.57150    0.49360    0.39250    1.000
    C359     C        0.53070    0.54880    0.32720    1.000
    H416     H        0.50640    0.55090    0.37890    1.000
    C360     C        0.98800    0.23960    0.74400    1.000
    H417     H        0.00500    0.26460    0.70720    1.000
    C361     C        0.93820    0.22980    0.72430    1.000
    C362     C        0.91330    0.19320    0.77830    1.000
    H418     H        0.87930    0.18650    0.76480    1.000
    C363     C        0.93830    0.16620    0.85210    1.000
    H419     H        0.92130    0.14120    0.88900    1.000
    N42      N        0.98810    0.17600    0.87190    1.000
    C364     C        0.01300    0.21260    0.81800    1.000
    H420     H        0.04700    0.21930    0.83150    1.000
    Ti8      Ti       0.22582    0.69427    0.82129    1.000
    O43      O        0.17430    0.67750    0.91910    1.000
    N43      N        0.22680    0.76330    0.91020    1.000
    H421     H        0.24620    0.78830    0.87030    1.000
    N44      N        0.28380    0.67920    0.94110    1.000
    H422     H        0.26900    0.65630    0.99230    1.000
    O44      O        0.23750    0.62780    0.79050    1.000
    C365     C        0.29920    0.72570    0.99340    1.000
    H423     H        0.32250    0.74410    0.94790    1.000
    C366     C        0.32850    0.65420    0.89640    1.000
    H424     H        0.35280    0.64810    0.95100    1.000
    H425     H        0.34410    0.67740    0.84790    1.000
    C367     C        0.08930    0.69714    0.12710    1.000
    H426     H        0.07010    0.67850    0.17400    1.000
    C368     C        0.11800    0.67277    0.05530    1.000
    C369     C        0.14598    0.70007    0.98680    1.000
    C370     C        0.14530    0.75173    0.99010    1.000
    C371     C        0.11660    0.77610    0.06190    1.000
    H427     H        0.11610    0.81140    0.06410    1.000
    C372     C        0.08860    0.74880    0.13040    1.000
    C373     C        0.35823    0.57240    0.83870    1.000
    H428     H        0.38820    0.57980    0.87350    1.000
    C374     C        0.35400    0.52850    0.78400    1.000
    C375     C        0.31010    0.51771    0.73310    1.000
    H429     H        0.30730    0.48770    0.69570    1.000
    C376     C        0.27050    0.55080    0.73700    1.000
    C377     C        0.27466    0.59465    0.79170    1.000
    C378     C        0.31850    0.60546    0.84260    1.000
    Cd15     Cd       0.54718    0.37373    0.78890    1.000
    C379     C        0.17530    0.78280    0.91850    1.000
    H430     H        0.15940    0.78250    0.85120    1.000
    H431     H        0.17620    0.81760    0.94280    1.000
    C380     C        0.11780    0.61440    0.05130    1.000
    C381     C        0.32470    0.71840    0.09310    1.000
    H432     H        0.35560    0.69900    0.08280    1.000
    H433     H        0.30270    0.69920    0.13850    1.000
    C382     C        0.22090    0.53830    0.67960    1.000
    C383     C        0.17170    0.59480    0.06460    1.000
    H434     H        0.19170    0.60440    0.00590    1.000
    H435     H        0.17120    0.55850    0.07050    1.000
    H436     H        0.18630    0.60920    0.12570    1.000
    C384     C        0.29250    0.80140    0.15400    1.000
    H437     H        0.26970    0.78670    0.20450    1.000
    H438     H        0.30350    0.83420    0.17990    1.000
    C385     C        0.25250    0.75780    0.00830    1.000
    H439     H        0.22960    0.73960    0.05480    1.000
    C386     C        0.17710    0.53870    0.74960    1.000
    H440     H        0.18080    0.51210    0.79970    1.000
    H441     H        0.14650    0.53330    0.71090    1.000
    H442     H        0.17530    0.57090    0.78410    1.000
    C387     C        0.22340    0.48580    0.62530    1.000
    H443     H        0.25310    0.48430    0.58260    1.000
    H444     H        0.19360    0.48120    0.58360    1.000
    H445     H        0.22490    0.45940    0.67630    1.000
    C388     C        0.21300    0.57730    0.59610    1.000
    H446     H        0.20560    0.60960    0.62680    1.000
    H447     H        0.18520    0.56710    0.55310    1.000
    H448     H        0.24330    0.58000    0.55520    1.000
    C389     C        0.26530    0.80870    0.05810    1.000
    H449     H        0.28590    0.82860    0.01120    1.000
    H450     H        0.23420    0.82730    0.07120    1.000
    C390     C        0.09630    0.59750    0.95410    1.000
    H451     H        0.06250    0.61060    0.94710    1.000
    H452     H        0.09540    0.56110    0.95270    1.000
    H453     H        0.11690    0.60960    0.89830    1.000
    C391     C        0.00970    0.76700    0.22000    1.000
    H454     H        0.99560    0.73800    0.19030    1.000
    C392     C        0.08750    0.59190    0.13710    1.000
    H455     H        0.10620    0.59470    0.20030    1.000
    H456     H        0.08100    0.55670    0.12260    1.000
    H457     H        0.05590    0.60970    0.14350    1.000
    C393     C        0.33760    0.76790    0.14240    1.000
    H458     H        0.35230    0.76150    0.20960    1.000
    H459     H        0.36300    0.78510    0.10090    1.000
    Br15     Br       0.60250    0.40830    0.63080    1.000
    O45      O        0.57350    0.29420    0.75820    1.000
    C394     C        0.53340    0.28450    0.71000    1.000
    O46      O        0.50180    0.31520    0.68710    1.000
    C395     C        0.52310    0.23170    0.67800    1.000
    H460     H        0.55050    0.21030    0.70020    1.000
    H461     H        0.49200    0.22030    0.70950    1.000
    H462     H        0.51990    0.23010    0.60480    1.000
    C396     C        0.43800    0.50020    0.86350    1.000
    H463     H        0.43500    0.52330    0.91730    1.000
    C397     C        0.40130    0.49760    0.79000    1.000
    C398     C        0.40570    0.46380    0.71100    1.000
    H464     H        0.38060    0.46210    0.66080    1.000
    C399     C        0.44680    0.43260    0.70590    1.000
    H465     H        0.44980    0.40950    0.65200    1.000
    N45      N        0.48350    0.43520    0.77950    1.000
    C400     C        0.47910    0.46900    0.85830    1.000
    H466     H        0.50420    0.47080    0.90860    1.000
    N46      N        0.99760    0.83340    0.32360    1.000
    C401     C        0.07180    0.82210    0.24140    1.000
    H467     H        0.10440    0.83390    0.22730    1.000
    C402     C        0.04290    0.84790    0.30500    1.000
    H468     H        0.05560    0.87700    0.33620    1.000
    C403     C        0.05640    0.78040    0.19740    1.000
    C404     C        0.98310    0.79460    0.28400    1.000
    H469     H        0.95050    0.78350    0.29950    1.000
    Cd16     Cd       0.52861    0.35790    0.73520    1.000
    Br16     Br       0.57420    0.39640    0.57410    1.000
    O47      O        0.47600    0.30020    0.63710    1.000
    O48      O        0.55370    0.28160    0.71400    1.000
    C405     C        0.50260    0.21690    0.65500    1.000
    H470     H        0.53240    0.19910    0.67790    1.000
    H471     H        0.47420    0.20730    0.69670    1.000
    H472     H        0.49590    0.20840    0.58440    1.000
    C406     C        0.51110    0.27220    0.66400    1.000
    N47      N        0.47230    0.42030    0.74340    1.000
    C407     C        0.43670    0.42340    0.66770    1.000
    H473     H        0.43880    0.40230    0.61040    1.000
    C408     C        0.39810    0.45750    0.67570    1.000
    H474     H        0.37370    0.45970    0.62400    1.000
    C409     C        0.39500    0.48840    0.75900    1.000
    C410     C        0.43060    0.48530    0.83520    1.000
    H475     H        0.42850    0.50640    0.89250    1.000
    C411     C        0.46930    0.45120    0.82720    1.000
    H476     H        0.49360    0.44910    0.87890    1.000
    C412     C        0.01200    0.76040    0.24400    1.000
    H477     H        0.99500    0.73540    0.20720    1.000
    C413     C        0.06180    0.77020    0.22430    1.000
    C414     C        0.08670    0.80680    0.27830    1.000
    H478     H        0.12070    0.81350    0.26480    1.000
    C415     C        0.06170    0.83380    0.35210    1.000
    H479     H        0.07870    0.85880    0.38900    1.000
    N48      N        0.01190    0.82400    0.37190    1.000
    C416     C        0.98700    0.78740    0.31800    1.000
    H480     H        0.95300    0.78070    0.33150    1.000
    O49      O        0.27630    0.72370    0.75000    1.000
    O50      O        0.72370    0.27630    0.25000    1.000
    O51      O        0.77630    0.77630    0.00000    1.000
    O52      O        0.22370    0.22370    0.50000    1.000
