# CIF file generated by openbabel 3.1.0, see https://openbabel.org
data_I
_chemical_name_common 'image0'
_cell_length_a 18.741
_cell_length_b 18.741
_cell_length_c 9.414
_cell_angle_alpha 90
_cell_angle_beta 90
_cell_angle_gamma 90
_space_group_name_H-M_alt 'P 1'
_space_group_name_Hall 'P 1'
loop_
    _symmetry_equiv_pos_as_xyz
    x,y,z
loop_
    _atom_site_label
    _atom_site_type_symbol
    _atom_site_fract_x
    _atom_site_fract_y
    _atom_site_fract_z
    _atom_site_occupancy
    P1       P        0.56500    0.05240    0.33410    1.000
    P2       P        0.66590    0.06410    0.91600    1.000
    P3       P        0.45450    0.16530    0.84280    1.000
    Al1      Al       0.56590    0.16605    0.09250    1.000
    Al2      Al       0.66653    0.95050    0.15980    1.000
    Al3      Al       0.44392    0.93480    0.33630    1.000
    O1       O        0.65880    0.98730    0.01070    1.000
    O2       O        0.49580    0.15720    0.00700    1.000
    O3       O        0.62480    0.05810    0.75130    1.000
    O4       O        0.37250    0.12230    0.84130    1.000
    O5       O        0.43810    0.25390    0.80510    1.000
    O6       O        0.75410    0.08120    0.87960    1.000
    O7       O        0.51000    0.12910    0.71300    1.000
    O8       O        0.63050    0.13440    0.01170    1.000
    O9       O        0.48490    0.00570    0.32550    1.000
    O10      O        0.57920    0.07760    0.51060    1.000
    O11      O        0.55770    0.12820    0.23720    1.000
    O12      O        0.63500    0.00020    0.27810    1.000
    P4       P        0.93500    0.44760    0.33410    1.000
    P5       P        0.83410    0.43590    0.91600    1.000
    P6       P        0.04550    0.33470    0.84280    1.000
    Al4      Al       0.93410    0.33395    0.09250    1.000
    Al5      Al       0.83347    0.54950    0.15980    1.000
    Al6      Al       0.05608    0.56520    0.33630    1.000
    O13      O        0.84120    0.51270    0.01070    1.000
    O14      O        0.00420    0.34280    0.00700    1.000
    O15      O        0.87520    0.44190    0.75130    1.000
    O16      O        0.12750    0.37770    0.84130    1.000
    O17      O        0.06190    0.24610    0.80510    1.000
    O18      O        0.74590    0.41880    0.87960    1.000
    O19      O        0.99000    0.37090    0.71300    1.000
    O20      O        0.86950    0.36560    0.01170    1.000
    O21      O        0.01510    0.49430    0.32550    1.000
    O22      O        0.92080    0.42240    0.51060    1.000
    O23      O        0.94230    0.37180    0.23720    1.000
    O24      O        0.86500    0.49980    0.27810    1.000
    P7       P        0.44760    0.56500    0.33410    1.000
    P8       P        0.43590    0.66590    0.91600    1.000
    P9       P        0.33470    0.45450    0.84280    1.000
    Al7      Al       0.33395    0.56590    0.09250    1.000
    Al8      Al       0.54950    0.66653    0.15980    1.000
    Al9      Al       0.56520    0.44392    0.33630    1.000
    O25      O        0.51270    0.65880    0.01070    1.000
    O26      O        0.34280    0.49580    0.00700    1.000
    O27      O        0.44190    0.62480    0.75130    1.000
    O28      O        0.37770    0.37250    0.84130    1.000
    O29      O        0.24610    0.43810    0.80510    1.000
    O30      O        0.41880    0.75410    0.87960    1.000
    O31      O        0.37090    0.51000    0.71300    1.000
    O32      O        0.36560    0.63050    0.01170    1.000
    O33      O        0.49430    0.48490    0.32550    1.000
    O34      O        0.42240    0.57920    0.51060    1.000
    O35      O        0.37180    0.55770    0.23720    1.000
    O36      O        0.49980    0.63500    0.27810    1.000
    P10      P        0.05240    0.93500    0.33410    1.000
    P11      P        0.06410    0.83410    0.91600    1.000
    P12      P        0.16530    0.04550    0.84280    1.000
    Al10     Al       0.16605    0.93410    0.09250    1.000
    Al11     Al       0.95050    0.83347    0.15980    1.000
    Al12     Al       0.93480    0.05608    0.33630    1.000
    O37      O        0.98730    0.84120    0.01070    1.000
    O38      O        0.15720    0.00420    0.00700    1.000
    O39      O        0.05810    0.87520    0.75130    1.000
    O40      O        0.12230    0.12750    0.84130    1.000
    O41      O        0.25390    0.06190    0.80510    1.000
    O42      O        0.08120    0.74590    0.87960    1.000
    O43      O        0.12910    0.99000    0.71300    1.000
    O44      O        0.13440    0.86950    0.01170    1.000
    O45      O        0.00570    0.01510    0.32550    1.000
    O46      O        0.07760    0.92080    0.51060    1.000
    O47      O        0.12820    0.94230    0.23720    1.000
    O48      O        0.00020    0.86500    0.27810    1.000
    P13      P        0.43500    0.94760    0.66590    1.000
    P14      P        0.33410    0.93590    0.08400    1.000
    P15      P        0.54550    0.83470    0.15720    1.000
    Al13     Al       0.43410    0.83395    0.90750    1.000
    Al14     Al       0.33347    0.04950    0.84020    1.000
    Al15     Al       0.55608    0.06520    0.66370    1.000
    O49      O        0.34120    0.01270    0.98930    1.000
    O50      O        0.50420    0.84280    0.99300    1.000
    O51      O        0.37520    0.94190    0.24870    1.000
    O52      O        0.62750    0.87770    0.15870    1.000
    O53      O        0.56190    0.74610    0.19490    1.000
    O54      O        0.24590    0.91880    0.12040    1.000
    O55      O        0.49000    0.87090    0.28700    1.000
    O56      O        0.36950    0.86560    0.98830    1.000
    O57      O        0.51510    0.99430    0.67450    1.000
    O58      O        0.42080    0.92240    0.48940    1.000
    O59      O        0.44230    0.87180    0.76280    1.000
    O60      O        0.36500    0.99980    0.72190    1.000
    P16      P        0.06500    0.55240    0.66590    1.000
    P17      P        0.16590    0.56410    0.08400    1.000
    P18      P        0.95450    0.66530    0.15720    1.000
    Al16     Al       0.06590    0.66605    0.90750    1.000
    Al17     Al       0.16653    0.45050    0.84020    1.000
    Al18     Al       0.94392    0.43480    0.66370    1.000
    O61      O        0.15880    0.48730    0.98930    1.000
    O62      O        0.99580    0.65720    0.99300    1.000
    O63      O        0.12480    0.55810    0.24870    1.000
    O64      O        0.87250    0.62230    0.15870    1.000
    O65      O        0.93810    0.75390    0.19490    1.000
    O66      O        0.25410    0.58120    0.12040    1.000
    O67      O        0.01000    0.62910    0.28700    1.000
    O68      O        0.13050    0.63440    0.98830    1.000
    O69      O        0.98490    0.50570    0.67450    1.000
    O70      O        0.07920    0.57760    0.48940    1.000
    O71      O        0.05770    0.62820    0.76280    1.000
    O72      O        0.13500    0.50020    0.72190    1.000
    P19      P        0.55240    0.43500    0.66590    1.000
    P20      P        0.56410    0.33410    0.08400    1.000
    P21      P        0.66530    0.54550    0.15720    1.000
    Al19     Al       0.66605    0.43410    0.90750    1.000
    Al20     Al       0.45050    0.33347    0.84020    1.000
    Al21     Al       0.43480    0.55608    0.66370    1.000
    O73      O        0.48730    0.34120    0.98930    1.000
    O74      O        0.65720    0.50420    0.99300    1.000
    O75      O        0.55810    0.37520    0.24870    1.000
    O76      O        0.62230    0.62750    0.15870    1.000
    O77      O        0.75390    0.56190    0.19490    1.000
    O78      O        0.58120    0.24590    0.12040    1.000
    O79      O        0.62910    0.49000    0.28700    1.000
    O80      O        0.63440    0.36950    0.98830    1.000
    O81      O        0.50570    0.51510    0.67450    1.000
    O82      O        0.57760    0.42080    0.48940    1.000
    O83      O        0.62820    0.44230    0.76280    1.000
    O84      O        0.50020    0.36500    0.72190    1.000
    P22      P        0.94760    0.06500    0.66590    1.000
    P23      P        0.93590    0.16590    0.08400    1.000
    P24      P        0.83470    0.95450    0.15720    1.000
    Al22     Al       0.83395    0.06590    0.90750    1.000
    Al23     Al       0.04950    0.16653    0.84020    1.000
    Al24     Al       0.06520    0.94392    0.66370    1.000
    O85      O        0.01270    0.15880    0.98930    1.000
    O86      O        0.84280    0.99580    0.99300    1.000
    O87      O        0.94190    0.12480    0.24870    1.000
    O88      O        0.87770    0.87250    0.15870    1.000
    O89      O        0.74610    0.93810    0.19490    1.000
    O90      O        0.91880    0.25410    0.12040    1.000
    O91      O        0.87090    0.01000    0.28700    1.000
    O92      O        0.86560    0.13050    0.98830    1.000
    O93      O        0.99430    0.98490    0.67450    1.000
    O94      O        0.92240    0.07920    0.48940    1.000
    O95      O        0.87180    0.05770    0.76280    1.000
    O96      O        0.99980    0.13500    0.72190    1.000
