# CIF file generated by openbabel 3.1.0, see https://openbabel.org
data_I
_chemical_name_common 'image0'
_cell_length_a 15.385
_cell_length_b 6.726
_cell_length_c 14.241
_cell_angle_alpha 90
_cell_angle_beta 90
_cell_angle_gamma 90
_space_group_name_H-M_alt 'P 1'
_space_group_name_Hall 'P 1'
loop_
    _symmetry_equiv_pos_as_xyz
    x,y,z
loop_
    _atom_site_label
    _atom_site_type_symbol
    _atom_site_fract_x
    _atom_site_fract_y
    _atom_site_fract_z
    _atom_site_occupancy
    O1       O        0.14660    0.58580    0.64020    1.000
    O2       O        0.21030    0.59010    0.25000    1.000
    O3       O        0.31680    0.06900    0.56910    1.000
    H1       H        0.31530    0.95630    0.59090    1.000
    H2       H        0.29040    0.90190    0.56030    1.000
    O4       O        0.29220    0.01100    0.53500    1.000
    O5       O        0.35340    0.41420    0.14020    1.000
    O6       O        0.28970    0.40990    0.75000    1.000
    O7       O        0.18320    0.93100    0.06910    1.000
    H3       H        0.18470    0.04370    0.09090    1.000
    H4       H        0.20960    0.09810    0.06030    1.000
    O8       O        0.20780    0.98900    0.03500    1.000
    O9       O        0.85340    0.08580    0.35980    1.000
    O10      O        0.78970    0.09010    0.75000    1.000
    O11      O        0.68320    0.56900    0.43090    1.000
    H5       H        0.68470    0.45630    0.40910    1.000
    H6       H        0.70960    0.40190    0.43970    1.000
    O12      O        0.70780    0.51100    0.46500    1.000
    O13      O        0.64660    0.91420    0.85980    1.000
    O14      O        0.71030    0.90990    0.25000    1.000
    O15      O        0.81680    0.43100    0.93090    1.000
    H7       H        0.81530    0.54370    0.90910    1.000
    H8       H        0.79040    0.59810    0.93970    1.000
    O16      O        0.79220    0.48900    0.96500    1.000
    O17      O        0.85340    0.41420    0.35980    1.000
    O18      O        0.78970    0.40990    0.75000    1.000
    O19      O        0.68320    0.93100    0.43090    1.000
    H9       H        0.68470    0.04370    0.40910    1.000
    H10      H        0.70960    0.09810    0.43970    1.000
    O20      O        0.70780    0.98900    0.46500    1.000
    O21      O        0.64660    0.58580    0.85980    1.000
    O22      O        0.71030    0.59010    0.25000    1.000
    O23      O        0.81680    0.06900    0.93090    1.000
    H11      H        0.81530    0.95630    0.90910    1.000
    H12      H        0.79040    0.90190    0.93970    1.000
    O24      O        0.79220    0.01100    0.96500    1.000
    O25      O        0.14660    0.91420    0.64020    1.000
    O26      O        0.21030    0.90990    0.25000    1.000
    O27      O        0.31680    0.43100    0.56910    1.000
    H13      H        0.31530    0.54370    0.59090    1.000
    H14      H        0.29040    0.59810    0.56030    1.000
    O28      O        0.29220    0.48900    0.53500    1.000
    O29      O        0.35340    0.08580    0.14020    1.000
    O30      O        0.28970    0.09010    0.75000    1.000
    O31      O        0.18320    0.56900    0.06910    1.000
    H15      H        0.18470    0.45630    0.09090    1.000
    H16      H        0.20960    0.40190    0.06030    1.000
    O32      O        0.20780    0.51100    0.03500    1.000
    C1       C        0.92780    0.75000    0.56770    1.000
    C2       C        0.99750    0.75000    0.49310    1.000
    C3       C        0.08550    0.75000    0.50850    1.000
    C4       C        0.12850    0.75000    0.60450    1.000
    C5       C        0.17640    0.75000    0.27340    1.000
    C6       C        0.10880    0.75000    0.34770    1.000
    C7       C        0.02110    0.75000    0.33300    1.000
    C8       C        0.97470    0.75000    0.23730    1.000
    N1       N        0.96670    0.75000    0.40450    1.000
    N2       N        0.14220    0.75000    0.43740    1.000
    O33      O        0.84860    0.75000    0.53590    1.000
    O34      O        0.95020    0.75000    0.65050    1.000
    O35      O        0.02140    0.75000    0.16580    1.000
    O36      O        0.89330    0.75000    0.23840    1.000
    C9       C        0.57220    0.25000    0.06770    1.000
    C10      C        0.50250    0.25000    0.99310    1.000
    C11      C        0.41450    0.25000    0.00850    1.000
    C12      C        0.37150    0.25000    0.10450    1.000
    C13      C        0.32360    0.25000    0.77340    1.000
    C14      C        0.39120    0.25000    0.84770    1.000
    C15      C        0.47890    0.25000    0.83300    1.000
    C16      C        0.52530    0.25000    0.73730    1.000
    N3       N        0.53330    0.25000    0.90450    1.000
    N4       N        0.35780    0.25000    0.93740    1.000
    O37      O        0.65140    0.25000    0.03590    1.000
    O38      O        0.54980    0.25000    0.15050    1.000
    O39      O        0.47860    0.25000    0.66580    1.000
    O40      O        0.60670    0.25000    0.73840    1.000
    C17      C        0.07220    0.25000    0.43230    1.000
    C18      C        0.00250    0.25000    0.50690    1.000
    C19      C        0.91450    0.25000    0.49150    1.000
    C20      C        0.87150    0.25000    0.39550    1.000
    C21      C        0.82360    0.25000    0.72660    1.000
    C22      C        0.89120    0.25000    0.65230    1.000
    C23      C        0.97890    0.25000    0.66700    1.000
    C24      C        0.02530    0.25000    0.76270    1.000
    N5       N        0.03330    0.25000    0.59550    1.000
    N6       N        0.85780    0.25000    0.56260    1.000
    O41      O        0.15140    0.25000    0.46410    1.000
    O42      O        0.04980    0.25000    0.34950    1.000
    O43      O        0.97860    0.25000    0.83420    1.000
    O44      O        0.10670    0.25000    0.76160    1.000
    C25      C        0.42780    0.75000    0.93230    1.000
    C26      C        0.49750    0.75000    0.00690    1.000
    C27      C        0.58550    0.75000    0.99150    1.000
    C28      C        0.62850    0.75000    0.89550    1.000
    C29      C        0.67640    0.75000    0.22660    1.000
    C30      C        0.60880    0.75000    0.15230    1.000
    C31      C        0.52110    0.75000    0.16700    1.000
    C32      C        0.47470    0.75000    0.26270    1.000
    N7       N        0.46670    0.75000    0.09550    1.000
    N8       N        0.64220    0.75000    0.06260    1.000
    O45      O        0.34860    0.75000    0.96410    1.000
    O46      O        0.45020    0.75000    0.84950    1.000
    O47      O        0.52140    0.75000    0.33420    1.000
    O48      O        0.39330    0.75000    0.26160    1.000
    Eu1      Eu       0.19677    0.25000    0.62385    1.000
    K1       K        0.26830    0.25000    0.31010    1.000
    Eu2      Eu       0.30323    0.75000    0.12385    1.000
    K2       K        0.23170    0.75000    0.81010    1.000
    Eu3      Eu       0.80323    0.75000    0.37615    1.000
    K3       K        0.73170    0.75000    0.68990    1.000
    Eu4      Eu       0.69677    0.25000    0.87615    1.000
    K4       K        0.76830    0.25000    0.18990    1.000
