# CIF file generated by openbabel 3.1.0, see https://openbabel.org
data_I
_chemical_name_common 'image0'
_cell_length_a 16.9293
_cell_length_b 18.4694
_cell_length_c 28.346
_cell_angle_alpha 90
_cell_angle_beta 100.629
_cell_angle_gamma 90
_space_group_name_H-M_alt 'P 1'
_space_group_name_Hall 'P 1'
loop_
    _symmetry_equiv_pos_as_xyz
    x,y,z
loop_
    _atom_site_label
    _atom_site_type_symbol
    _atom_site_fract_x
    _atom_site_fract_y
    _atom_site_fract_z
    _atom_site_occupancy
    Mn1      Mn       0.21746    0.38004    0.08829    1.000
    O1       O        0.80000    0.79500    0.07215    1.000
    O2       O        0.78600    0.78770    0.14753    1.000
    O3       O        0.61430    0.81720    0.08110    1.000
    O4       O        0.63850    0.74440    0.02241    1.000
    O5       O        0.20120    0.43710    0.02437    1.000
    O6       O        0.23440    0.35800    0.97135    1.000
    N1       N        0.18800    0.49620    0.16940    1.000
    N2       N        0.06210    0.70300    0.77820    1.000
    N3       N        0.32620    0.48460    0.16270    1.000
    N4       N        0.32690    0.44370    0.12250    1.000
    N5       N        0.15620    0.46620    0.12550    1.000
    N6       N        0.13960    0.71440    0.77350    1.000
    C1       C        0.37890    0.47570    0.09880    1.000
    C2       C        0.39770    0.44630    0.05350    1.000
    H1       H        0.45240    0.42680    0.05940    1.000
    H2       H        0.39360    0.48510    0.02950    1.000
    H3       H        0.35950    0.40770    0.04150    1.000
    C3       C        0.03980    0.48940    0.06170    1.000
    H4       H        0.06100    0.51380    0.03590    1.000
    H5       H        0.98470    0.50590    0.06160    1.000
    H6       H        0.03980    0.43690    0.05650    1.000
    H7       H        0.97570    0.77790    0.77170    1.000
    C4       C        0.21180    0.41910    0.98320    1.000
    C5       C        0.82160    0.76950    0.11440    1.000
    C6       C        0.01740    0.61630    0.13710    1.000
    C7       C        0.08230    0.56150    0.14240    1.000
    C8       C        0.57160    0.62980    0.06790    1.000
    H8       H        0.61390    0.61650    0.05180    1.000
    C9       C        0.40950    0.54070    0.12310    1.000
    C10      C        0.05620    0.65370    0.81320    1.000
    C11      C        0.60610    0.75840    0.05760    1.000
    C12      C        0.49040    0.72080    0.09630    1.000
    H9       H        0.47870    0.77030    0.10080    1.000
    C13      C        0.14550    0.55320    0.18010    1.000
    C14      C        0.93580    0.70510    0.08730    1.000
    H10      H        0.92410    0.73090    0.05780    1.000
    C15      C        0.26650    0.46830    0.19180    1.000
    H11      H        0.28280    0.49030    0.22390    1.000
    H12      H        0.26310    0.41530    0.19590    1.000
    C16      C        0.13370    0.63180    0.83210    1.000
    C17      C        0.46090    0.59600    0.10680    1.000
    C18      C        0.97310    0.62910    0.17290    1.000
    H13      H        0.98560    0.60330    0.20230    1.000
    C19      C        0.09180    0.50720    0.10930    1.000
    C20      C        0.52620    0.57630    0.08550    1.000
    H14      H        0.53960    0.52670    0.08300    1.000
    C21      C        0.20350    0.45960    0.89830    1.000
    H15      H        0.22080    0.41270    0.89100    1.000
    C22      C        0.15760    0.57850    0.87130    1.000
    C23      C        0.55450    0.70270    0.07410    1.000
    C24      C        0.19710    0.47570    0.94420    1.000
    C25      C        0.18330    0.67120    0.80630    1.000
    C26      C        0.99770    0.65550    0.09440    1.000
    H16      H        0.02780    0.64780    0.06970    1.000
    C27      C        0.91060    0.67940    0.16620    1.000
    H17      H        0.88140    0.68770    0.19130    1.000
    C28      C        0.89010    0.71810    0.12250    1.000
    C29      C        0.37460    0.54440    0.16350    1.000
    C30      C        0.17320    0.54450    0.95460    1.000
    H18      H        0.16970    0.55700    0.98660    1.000
    C31      C        0.18540    0.51060    0.86170    1.000
    H19      H        0.19210    0.49870    0.83000    1.000
    C32      C        0.97760    0.62820    0.82320    1.000
    H20      H        0.94230    0.66990    0.82460    1.000
    H21      H        0.98610    0.60250    0.85390    1.000
    H22      H        0.95260    0.59540    0.79750    1.000
    C33      C        0.44390    0.66830    0.11160    1.000
    H23      H        0.39940    0.68190    0.12570    1.000
    C34      C        0.15420    0.59600    0.91800    1.000
    H24      H        0.13870    0.64340    0.92550    1.000
    C35      C        0.27380    0.66770    0.81180    1.000
    H25      H        0.29140    0.69980    0.78830    1.000
    H26      H        0.29010    0.61790    0.80660    1.000
    H27      H        0.29840    0.68310    0.84430    1.000
    C36      C        0.38670    0.59730    0.20420    1.000
    H28      H        0.44040    0.61880    0.20760    1.000
    H29      H        0.38160    0.57230    0.23390    1.000
    H30      H        0.34600    0.63550    0.19760    1.000
    C37      C        0.16770    0.59510    0.22580    1.000
    H31      H        0.16340    0.56370    0.25310    1.000
    H32      H        0.13110    0.63640    0.22530    1.000
    H33      H        0.22300    0.61270    0.22900    1.000
    Mn2      Mn       0.71746    0.88004    0.08829    1.000
    O7       O        0.30000    0.29500    0.07215    1.000
    O8       O        0.28600    0.28770    0.14753    1.000
    O9       O        0.11430    0.31720    0.08110    1.000
    O10      O        0.13850    0.24440    0.02241    1.000
    O11      O        0.70120    0.93710    0.02437    1.000
    O12      O        0.73440    0.85800    0.97135    1.000
    N7       N        0.68800    0.99620    0.16940    1.000
    N8       N        0.56210    0.20300    0.77820    1.000
    N9       N        0.82620    0.98460    0.16270    1.000
    N10      N        0.82690    0.94370    0.12250    1.000
    N11      N        0.65620    0.96620    0.12550    1.000
    N12      N        0.63960    0.21440    0.77350    1.000
    C38      C        0.87890    0.97570    0.09880    1.000
    C39      C        0.89770    0.94630    0.05350    1.000
    H34      H        0.95240    0.92680    0.05940    1.000
    H35      H        0.89360    0.98510    0.02950    1.000
    H36      H        0.85950    0.90770    0.04150    1.000
    C40      C        0.53980    0.98940    0.06170    1.000
    H37      H        0.56100    0.01380    0.03590    1.000
    H38      H        0.48470    0.00590    0.06160    1.000
    H39      H        0.53980    0.93690    0.05650    1.000
    H40      H        0.47570    0.27790    0.77170    1.000
    C41      C        0.71180    0.91910    0.98320    1.000
    C42      C        0.32160    0.26950    0.11440    1.000
    C43      C        0.51740    0.11630    0.13710    1.000
    C44      C        0.58230    0.06150    0.14240    1.000
    C45      C        0.07160    0.12980    0.06790    1.000
    H41      H        0.11390    0.11650    0.05180    1.000
    C46      C        0.90950    0.04070    0.12310    1.000
    C47      C        0.55620    0.15370    0.81320    1.000
    C48      C        0.10610    0.25840    0.05760    1.000
    C49      C        0.99040    0.22080    0.09630    1.000
    H42      H        0.97870    0.27030    0.10080    1.000
    C50      C        0.64550    0.05320    0.18010    1.000
    C51      C        0.43580    0.20510    0.08730    1.000
    H43      H        0.42410    0.23090    0.05780    1.000
    C52      C        0.76650    0.96830    0.19180    1.000
    H44      H        0.78280    0.99030    0.22390    1.000
    H45      H        0.76310    0.91530    0.19590    1.000
    C53      C        0.63370    0.13180    0.83210    1.000
    C54      C        0.96090    0.09600    0.10680    1.000
    C55      C        0.47310    0.12910    0.17290    1.000
    H46      H        0.48560    0.10330    0.20230    1.000
    C56      C        0.59180    0.00720    0.10930    1.000
    C57      C        0.02620    0.07630    0.08550    1.000
    H47      H        0.03960    0.02670    0.08300    1.000
    C58      C        0.70350    0.95960    0.89830    1.000
    H48      H        0.72080    0.91270    0.89100    1.000
    C59      C        0.65760    0.07850    0.87130    1.000
    C60      C        0.05450    0.20270    0.07410    1.000
    C61      C        0.69710    0.97570    0.94420    1.000
    C62      C        0.68330    0.17120    0.80630    1.000
    C63      C        0.49770    0.15550    0.09440    1.000
    H49      H        0.52780    0.14780    0.06970    1.000
    C64      C        0.41060    0.17940    0.16620    1.000
    H50      H        0.38140    0.18770    0.19130    1.000
    C65      C        0.39010    0.21810    0.12250    1.000
    C66      C        0.87460    0.04440    0.16350    1.000
    C67      C        0.67320    0.04450    0.95460    1.000
    H51      H        0.66970    0.05700    0.98660    1.000
    C68      C        0.68540    0.01060    0.86170    1.000
    H52      H        0.69210    0.99870    0.83000    1.000
    C69      C        0.47760    0.12820    0.82320    1.000
    H53      H        0.44230    0.16990    0.82460    1.000
    H54      H        0.48610    0.10250    0.85390    1.000
    H55      H        0.45260    0.09540    0.79750    1.000
    C70      C        0.94390    0.16830    0.11160    1.000
    H56      H        0.89940    0.18190    0.12570    1.000
    C71      C        0.65420    0.09600    0.91800    1.000
    H57      H        0.63870    0.14340    0.92550    1.000
    C72      C        0.77380    0.16770    0.81180    1.000
    H58      H        0.79140    0.19980    0.78830    1.000
    H59      H        0.79010    0.11790    0.80660    1.000
    H60      H        0.79840    0.18310    0.84430    1.000
    C73      C        0.88670    0.09730    0.20420    1.000
    H61      H        0.94040    0.11880    0.20760    1.000
    H62      H        0.88160    0.07230    0.23390    1.000
    H63      H        0.84600    0.13550    0.19760    1.000
    C74      C        0.66770    0.09510    0.22580    1.000
    H64      H        0.66340    0.06370    0.25310    1.000
    H65      H        0.63110    0.13640    0.22530    1.000
    H66      H        0.72300    0.11270    0.22900    1.000
    Mn3      Mn       0.78254    0.38004    0.41171    1.000
    O13      O        0.20000    0.79500    0.42785    1.000
    O14      O        0.21400    0.78770    0.35247    1.000
    O15      O        0.38570    0.81720    0.41890    1.000
    O16      O        0.36150    0.74440    0.47759    1.000
    O17      O        0.79880    0.43710    0.47563    1.000
    O18      O        0.76560    0.35800    0.52865    1.000
    N13      N        0.81200    0.49620    0.33060    1.000
    N14      N        0.93790    0.70300    0.72180    1.000
    N15      N        0.67380    0.48460    0.33730    1.000
    N16      N        0.67310    0.44370    0.37750    1.000
    N17      N        0.84380    0.46620    0.37450    1.000
    N18      N        0.86040    0.71440    0.72650    1.000
    C75      C        0.62110    0.47570    0.40120    1.000
    C76      C        0.60230    0.44630    0.44650    1.000
    H67      H        0.54760    0.42680    0.44060    1.000
    H68      H        0.60640    0.48510    0.47050    1.000
    H69      H        0.64050    0.40770    0.45850    1.000
    C77      C        0.96020    0.48940    0.43830    1.000
    H70      H        0.93900    0.51380    0.46410    1.000
    H71      H        0.01530    0.50590    0.43840    1.000
    H72      H        0.96020    0.43690    0.44350    1.000
    H73      H        0.02430    0.77790    0.72830    1.000
    C78      C        0.78820    0.41910    0.51680    1.000
    C79      C        0.17840    0.76950    0.38560    1.000
    C80      C        0.98260    0.61630    0.36290    1.000
    C81      C        0.91770    0.56150    0.35760    1.000
    C82      C        0.42840    0.62980    0.43210    1.000
    H74      H        0.38610    0.61650    0.44820    1.000
    C83      C        0.59050    0.54070    0.37690    1.000
    C84      C        0.94380    0.65370    0.68680    1.000
    C85      C        0.39390    0.75840    0.44240    1.000
    C86      C        0.50960    0.72080    0.40370    1.000
    H75      H        0.52130    0.77030    0.39920    1.000
    C87      C        0.85450    0.55320    0.31990    1.000
    C88      C        0.06420    0.70510    0.41270    1.000
    H76      H        0.07590    0.73090    0.44220    1.000
    C89      C        0.73350    0.46830    0.30820    1.000
    H77      H        0.71720    0.49030    0.27610    1.000
    H78      H        0.73690    0.41530    0.30410    1.000
    C90      C        0.86630    0.63180    0.66790    1.000
    C91      C        0.53910    0.59600    0.39320    1.000
    C92      C        0.02690    0.62910    0.32710    1.000
    H79      H        0.01440    0.60330    0.29770    1.000
    C93      C        0.90820    0.50720    0.39070    1.000
    C94      C        0.47380    0.57630    0.41450    1.000
    H80      H        0.46040    0.52670    0.41700    1.000
    C95      C        0.79650    0.45960    0.60170    1.000
    H81      H        0.77920    0.41270    0.60900    1.000
    C96      C        0.84240    0.57850    0.62870    1.000
    C97      C        0.44550    0.70270    0.42590    1.000
    C98      C        0.80290    0.47570    0.55580    1.000
    C99      C        0.81670    0.67120    0.69370    1.000
    C100     C        0.00230    0.65550    0.40560    1.000
    H82      H        0.97220    0.64780    0.43030    1.000
    C101     C        0.08940    0.67940    0.33380    1.000
    H83      H        0.11860    0.68770    0.30870    1.000
    C102     C        0.10990    0.71810    0.37750    1.000
    C103     C        0.62540    0.54440    0.33650    1.000
    C104     C        0.82680    0.54450    0.54540    1.000
    H84      H        0.83030    0.55700    0.51340    1.000
    C105     C        0.81460    0.51060    0.63830    1.000
    H85      H        0.80790    0.49870    0.67000    1.000
    C106     C        0.02240    0.62820    0.67680    1.000
    H86      H        0.05770    0.66990    0.67540    1.000
    H87      H        0.01390    0.60250    0.64610    1.000
    H88      H        0.04740    0.59540    0.70250    1.000
    C107     C        0.55610    0.66830    0.38840    1.000
    H89      H        0.60060    0.68190    0.37430    1.000
    C108     C        0.84580    0.59600    0.58200    1.000
    H90      H        0.86130    0.64340    0.57450    1.000
    C109     C        0.72620    0.66770    0.68820    1.000
    H91      H        0.70860    0.69980    0.71170    1.000
    H92      H        0.70990    0.61790    0.69340    1.000
    H93      H        0.70160    0.68310    0.65570    1.000
    C110     C        0.61330    0.59730    0.29580    1.000
    H94      H        0.55960    0.61880    0.29240    1.000
    H95      H        0.61840    0.57230    0.26610    1.000
    H96      H        0.65400    0.63550    0.30240    1.000
    C111     C        0.83230    0.59510    0.27420    1.000
    H97      H        0.83660    0.56370    0.24690    1.000
    H98      H        0.86890    0.63640    0.27470    1.000
    H99      H        0.77700    0.61270    0.27100    1.000
    Mn4      Mn       0.28254    0.88004    0.41171    1.000
    O19      O        0.70000    0.29500    0.42785    1.000
    O20      O        0.71400    0.28770    0.35247    1.000
    O21      O        0.88570    0.31720    0.41890    1.000
    O22      O        0.86150    0.24440    0.47759    1.000
    O23      O        0.29880    0.93710    0.47563    1.000
    O24      O        0.26560    0.85800    0.52865    1.000
    N19      N        0.31200    0.99620    0.33060    1.000
    N20      N        0.43790    0.20300    0.72180    1.000
    N21      N        0.17380    0.98460    0.33730    1.000
    N22      N        0.17310    0.94370    0.37750    1.000
    N23      N        0.34380    0.96620    0.37450    1.000
    N24      N        0.36040    0.21440    0.72650    1.000
    C112     C        0.12110    0.97570    0.40120    1.000
    C113     C        0.10230    0.94630    0.44650    1.000
    H100     H        0.04760    0.92680    0.44060    1.000
    H101     H        0.10640    0.98510    0.47050    1.000
    H102     H        0.14050    0.90770    0.45850    1.000
    C114     C        0.46020    0.98940    0.43830    1.000
    H103     H        0.43900    0.01380    0.46410    1.000
    H104     H        0.51530    0.00590    0.43840    1.000
    H105     H        0.46020    0.93690    0.44350    1.000
    H106     H        0.52430    0.27790    0.72830    1.000
    C115     C        0.28820    0.91910    0.51680    1.000
    C116     C        0.67840    0.26950    0.38560    1.000
    C117     C        0.48260    0.11630    0.36290    1.000
    C118     C        0.41770    0.06150    0.35760    1.000
    C119     C        0.92840    0.12980    0.43210    1.000
    H107     H        0.88610    0.11650    0.44820    1.000
    C120     C        0.09050    0.04070    0.37690    1.000
    C121     C        0.44380    0.15370    0.68680    1.000
    C122     C        0.89390    0.25840    0.44240    1.000
    C123     C        0.00960    0.22080    0.40370    1.000
    H108     H        0.02130    0.27030    0.39920    1.000
    C124     C        0.35450    0.05320    0.31990    1.000
    C125     C        0.56420    0.20510    0.41270    1.000
    H109     H        0.57590    0.23090    0.44220    1.000
    C126     C        0.23350    0.96830    0.30820    1.000
    H110     H        0.21720    0.99030    0.27610    1.000
    H111     H        0.23690    0.91530    0.30410    1.000
    C127     C        0.36630    0.13180    0.66790    1.000
    C128     C        0.03910    0.09600    0.39320    1.000
    C129     C        0.52690    0.12910    0.32710    1.000
    H112     H        0.51440    0.10330    0.29770    1.000
    C130     C        0.40820    0.00720    0.39070    1.000
    C131     C        0.97380    0.07630    0.41450    1.000
    H113     H        0.96040    0.02670    0.41700    1.000
    C132     C        0.29650    0.95960    0.60170    1.000
    H114     H        0.27920    0.91270    0.60900    1.000
    C133     C        0.34240    0.07850    0.62870    1.000
    C134     C        0.94550    0.20270    0.42590    1.000
    C135     C        0.30290    0.97570    0.55580    1.000
    C136     C        0.31670    0.17120    0.69370    1.000
    C137     C        0.50230    0.15550    0.40560    1.000
    H115     H        0.47220    0.14780    0.43030    1.000
    C138     C        0.58940    0.17940    0.33380    1.000
    H116     H        0.61860    0.18770    0.30870    1.000
    C139     C        0.60990    0.21810    0.37750    1.000
    C140     C        0.12540    0.04440    0.33650    1.000
    C141     C        0.32680    0.04450    0.54540    1.000
    H117     H        0.33030    0.05700    0.51340    1.000
    C142     C        0.31460    0.01060    0.63830    1.000
    H118     H        0.30790    0.99870    0.67000    1.000
    C143     C        0.52240    0.12820    0.67680    1.000
    H119     H        0.55770    0.16990    0.67540    1.000
    H120     H        0.51390    0.10250    0.64610    1.000
    H121     H        0.54740    0.09540    0.70250    1.000
    C144     C        0.05610    0.16830    0.38840    1.000
    H122     H        0.10060    0.18190    0.37430    1.000
    C145     C        0.34580    0.09600    0.58200    1.000
    H123     H        0.36130    0.14340    0.57450    1.000
    C146     C        0.22620    0.16770    0.68820    1.000
    H124     H        0.20860    0.19980    0.71170    1.000
    H125     H        0.20990    0.11790    0.69340    1.000
    H126     H        0.20160    0.18310    0.65570    1.000
    C147     C        0.11330    0.09730    0.29580    1.000
    H127     H        0.05960    0.11880    0.29240    1.000
    H128     H        0.11840    0.07230    0.26610    1.000
    H129     H        0.15400    0.13550    0.30240    1.000
    C148     C        0.33230    0.09510    0.27420    1.000
    H130     H        0.33660    0.06370    0.24690    1.000
    H131     H        0.36890    0.13640    0.27470    1.000
    H132     H        0.27700    0.11270    0.27100    1.000
    Mn5      Mn       0.78254    0.61996    0.91171    1.000
    O25      O        0.20000    0.20500    0.92785    1.000
    O26      O        0.21400    0.21230    0.85247    1.000
    O27      O        0.38570    0.18280    0.91890    1.000
    O28      O        0.36150    0.25560    0.97759    1.000
    O29      O        0.79880    0.56290    0.97563    1.000
    O30      O        0.76560    0.64200    0.02865    1.000
    N25      N        0.81200    0.50380    0.83060    1.000
    N26      N        0.93790    0.29700    0.22180    1.000
    N27      N        0.67380    0.51540    0.83730    1.000
    N28      N        0.67310    0.55630    0.87750    1.000
    N29      N        0.84380    0.53380    0.87450    1.000
    N30      N        0.86040    0.28560    0.22650    1.000
    C149     C        0.62110    0.52430    0.90120    1.000
    C150     C        0.60230    0.55370    0.94650    1.000
    H133     H        0.54760    0.57320    0.94060    1.000
    H134     H        0.60640    0.51490    0.97050    1.000
    H135     H        0.64050    0.59230    0.95850    1.000
    C151     C        0.96020    0.51060    0.93830    1.000
    H136     H        0.93900    0.48620    0.96410    1.000
    H137     H        0.01530    0.49410    0.93840    1.000
    H138     H        0.96020    0.56310    0.94350    1.000
    H139     H        0.02430    0.22210    0.22830    1.000
    C152     C        0.78820    0.58090    0.01680    1.000
    C153     C        0.17840    0.23050    0.88560    1.000
    C154     C        0.98260    0.38370    0.86290    1.000
    C155     C        0.91770    0.43850    0.85760    1.000
    C156     C        0.42840    0.37020    0.93210    1.000
    H140     H        0.38610    0.38350    0.94820    1.000
    C157     C        0.59050    0.45930    0.87690    1.000
    C158     C        0.94380    0.34630    0.18680    1.000
    C159     C        0.39390    0.24160    0.94240    1.000
    C160     C        0.50960    0.27920    0.90370    1.000
    H141     H        0.52130    0.22970    0.89920    1.000
    C161     C        0.85450    0.44680    0.81990    1.000
    C162     C        0.06420    0.29490    0.91270    1.000
    H142     H        0.07590    0.26910    0.94220    1.000
    C163     C        0.73350    0.53170    0.80820    1.000
    H143     H        0.71720    0.50970    0.77610    1.000
    H144     H        0.73690    0.58470    0.80410    1.000
    C164     C        0.86630    0.36820    0.16790    1.000
    C165     C        0.53910    0.40400    0.89320    1.000
    C166     C        0.02690    0.37090    0.82710    1.000
    H145     H        0.01440    0.39670    0.79770    1.000
    C167     C        0.90820    0.49280    0.89070    1.000
    C168     C        0.47380    0.42370    0.91450    1.000
    H146     H        0.46040    0.47330    0.91700    1.000
    C169     C        0.79650    0.54040    0.10170    1.000
    H147     H        0.77920    0.58730    0.10900    1.000
    C170     C        0.84240    0.42150    0.12870    1.000
    C171     C        0.44550    0.29730    0.92590    1.000
    C172     C        0.80290    0.52430    0.05580    1.000
    C173     C        0.81670    0.32880    0.19370    1.000
    C174     C        0.00230    0.34450    0.90560    1.000
    H148     H        0.97220    0.35220    0.93030    1.000
    C175     C        0.08940    0.32060    0.83380    1.000
    H149     H        0.11860    0.31230    0.80870    1.000
    C176     C        0.10990    0.28190    0.87750    1.000
    C177     C        0.62540    0.45560    0.83650    1.000
    C178     C        0.82680    0.45550    0.04540    1.000
    H150     H        0.83030    0.44300    0.01340    1.000
    C179     C        0.81460    0.48940    0.13830    1.000
    H151     H        0.80790    0.50130    0.17000    1.000
    C180     C        0.02240    0.37180    0.17680    1.000
    H152     H        0.05770    0.33010    0.17540    1.000
    H153     H        0.01390    0.39750    0.14610    1.000
    H154     H        0.04740    0.40460    0.20250    1.000
    C181     C        0.55610    0.33170    0.88840    1.000
    H155     H        0.60060    0.31810    0.87430    1.000
    C182     C        0.84580    0.40400    0.08200    1.000
    H156     H        0.86130    0.35660    0.07450    1.000
    C183     C        0.72620    0.33230    0.18820    1.000
    H157     H        0.70860    0.30020    0.21170    1.000
    H158     H        0.70990    0.38210    0.19340    1.000
    H159     H        0.70160    0.31690    0.15570    1.000
    C184     C        0.61330    0.40270    0.79580    1.000
    H160     H        0.55960    0.38120    0.79240    1.000
    H161     H        0.61840    0.42770    0.76610    1.000
    H162     H        0.65400    0.36450    0.80240    1.000
    C185     C        0.83230    0.40490    0.77420    1.000
    H163     H        0.83660    0.43630    0.74690    1.000
    H164     H        0.86890    0.36360    0.77470    1.000
    H165     H        0.77700    0.38730    0.77100    1.000
    Mn6      Mn       0.28254    0.11996    0.91171    1.000
    O31      O        0.70000    0.70500    0.92785    1.000
    O32      O        0.71400    0.71230    0.85247    1.000
    O33      O        0.88570    0.68280    0.91890    1.000
    O34      O        0.86150    0.75560    0.97759    1.000
    O35      O        0.29880    0.06290    0.97563    1.000
    O36      O        0.26560    0.14200    0.02865    1.000
    N31      N        0.31200    0.00380    0.83060    1.000
    N32      N        0.43790    0.79700    0.22180    1.000
    N33      N        0.17380    0.01540    0.83730    1.000
    N34      N        0.17310    0.05630    0.87750    1.000
    N35      N        0.34380    0.03380    0.87450    1.000
    N36      N        0.36040    0.78560    0.22650    1.000
    C186     C        0.12110    0.02430    0.90120    1.000
    C187     C        0.10230    0.05370    0.94650    1.000
    H166     H        0.04760    0.07320    0.94060    1.000
    H167     H        0.10640    0.01490    0.97050    1.000
    H168     H        0.14050    0.09230    0.95850    1.000
    C188     C        0.46020    0.01060    0.93830    1.000
    H169     H        0.43900    0.98620    0.96410    1.000
    H170     H        0.51530    0.99410    0.93840    1.000
    H171     H        0.46020    0.06310    0.94350    1.000
    H172     H        0.52430    0.72210    0.22830    1.000
    C189     C        0.28820    0.08090    0.01680    1.000
    C190     C        0.67840    0.73050    0.88560    1.000
    C191     C        0.48260    0.88370    0.86290    1.000
    C192     C        0.41770    0.93850    0.85760    1.000
    C193     C        0.92840    0.87020    0.93210    1.000
    H173     H        0.88610    0.88350    0.94820    1.000
    C194     C        0.09050    0.95930    0.87690    1.000
    C195     C        0.44380    0.84630    0.18680    1.000
    C196     C        0.89390    0.74160    0.94240    1.000
    C197     C        0.00960    0.77920    0.90370    1.000
    H174     H        0.02130    0.72970    0.89920    1.000
    C198     C        0.35450    0.94680    0.81990    1.000
    C199     C        0.56420    0.79490    0.91270    1.000
    H175     H        0.57590    0.76910    0.94220    1.000
    C200     C        0.23350    0.03170    0.80820    1.000
    H176     H        0.21720    0.00970    0.77610    1.000
    H177     H        0.23690    0.08470    0.80410    1.000
    C201     C        0.36630    0.86820    0.16790    1.000
    C202     C        0.03910    0.90400    0.89320    1.000
    C203     C        0.52690    0.87090    0.82710    1.000
    H178     H        0.51440    0.89670    0.79770    1.000
    C204     C        0.40820    0.99280    0.89070    1.000
    C205     C        0.97380    0.92370    0.91450    1.000
    H179     H        0.96040    0.97330    0.91700    1.000
    C206     C        0.29650    0.04040    0.10170    1.000
    H180     H        0.27920    0.08730    0.10900    1.000
    C207     C        0.34240    0.92150    0.12870    1.000
    C208     C        0.94550    0.79730    0.92590    1.000
    C209     C        0.30290    0.02430    0.05580    1.000
    C210     C        0.31670    0.82880    0.19370    1.000
    C211     C        0.50230    0.84450    0.90560    1.000
    H181     H        0.47220    0.85220    0.93030    1.000
    C212     C        0.58940    0.82060    0.83380    1.000
    H182     H        0.61860    0.81230    0.80870    1.000
    C213     C        0.60990    0.78190    0.87750    1.000
    C214     C        0.12540    0.95560    0.83650    1.000
    C215     C        0.32680    0.95550    0.04540    1.000
    H183     H        0.33030    0.94300    0.01340    1.000
    C216     C        0.31460    0.98940    0.13830    1.000
    H184     H        0.30790    0.00130    0.17000    1.000
    C217     C        0.52240    0.87180    0.17680    1.000
    H185     H        0.55770    0.83010    0.17540    1.000
    H186     H        0.51390    0.89750    0.14610    1.000
    H187     H        0.54740    0.90460    0.20250    1.000
    C218     C        0.05610    0.83170    0.88840    1.000
    H188     H        0.10060    0.81810    0.87430    1.000
    C219     C        0.34580    0.90400    0.08200    1.000
    H189     H        0.36130    0.85660    0.07450    1.000
    C220     C        0.22620    0.83230    0.18820    1.000
    H190     H        0.20860    0.80020    0.21170    1.000
    H191     H        0.20990    0.88210    0.19340    1.000
    H192     H        0.20160    0.81690    0.15570    1.000
    C221     C        0.11330    0.90270    0.79580    1.000
    H193     H        0.05960    0.88120    0.79240    1.000
    H194     H        0.11840    0.92770    0.76610    1.000
    H195     H        0.15400    0.86450    0.80240    1.000
    C222     C        0.33230    0.90490    0.77420    1.000
    H196     H        0.33660    0.93630    0.74690    1.000
    H197     H        0.36890    0.86360    0.77470    1.000
    H198     H        0.27700    0.88730    0.77100    1.000
    Mn7      Mn       0.21746    0.61996    0.58829    1.000
    O37      O        0.80000    0.20500    0.57215    1.000
    O38      O        0.78600    0.21230    0.64753    1.000
    O39      O        0.61430    0.18280    0.58110    1.000
    O40      O        0.63850    0.25560    0.52241    1.000
    O41      O        0.20120    0.56290    0.52437    1.000
    O42      O        0.23440    0.64200    0.47135    1.000
    N37      N        0.18800    0.50380    0.66940    1.000
    N38      N        0.06210    0.29700    0.27820    1.000
    N39      N        0.32620    0.51540    0.66270    1.000
    N40      N        0.32690    0.55630    0.62250    1.000
    N41      N        0.15620    0.53380    0.62550    1.000
    N42      N        0.13960    0.28560    0.27350    1.000
    C223     C        0.37890    0.52430    0.59880    1.000
    C224     C        0.39770    0.55370    0.55350    1.000
    H199     H        0.45240    0.57320    0.55940    1.000
    H200     H        0.39360    0.51490    0.52950    1.000
    H201     H        0.35950    0.59230    0.54150    1.000
    C225     C        0.03980    0.51060    0.56170    1.000
    H202     H        0.06100    0.48620    0.53590    1.000
    H203     H        0.98470    0.49410    0.56160    1.000
    H204     H        0.03980    0.56310    0.55650    1.000
    H205     H        0.97570    0.22210    0.27170    1.000
    C226     C        0.21180    0.58090    0.48320    1.000
    C227     C        0.82160    0.23050    0.61440    1.000
    C228     C        0.01740    0.38370    0.63710    1.000
    C229     C        0.08230    0.43850    0.64240    1.000
    C230     C        0.57160    0.37020    0.56790    1.000
    H206     H        0.61390    0.38350    0.55180    1.000
    C231     C        0.40950    0.45930    0.62310    1.000
    C232     C        0.05620    0.34630    0.31320    1.000
    C233     C        0.60610    0.24160    0.55760    1.000
    C234     C        0.49040    0.27920    0.59630    1.000
    H207     H        0.47870    0.22970    0.60080    1.000
    C235     C        0.14550    0.44680    0.68010    1.000
    C236     C        0.93580    0.29490    0.58730    1.000
    H208     H        0.92410    0.26910    0.55780    1.000
    C237     C        0.26650    0.53170    0.69180    1.000
    H209     H        0.28280    0.50970    0.72390    1.000
    H210     H        0.26310    0.58470    0.69590    1.000
    C238     C        0.13370    0.36820    0.33210    1.000
    C239     C        0.46090    0.40400    0.60680    1.000
    C240     C        0.97310    0.37090    0.67290    1.000
    H211     H        0.98560    0.39670    0.70230    1.000
    C241     C        0.09180    0.49280    0.60930    1.000
    C242     C        0.52620    0.42370    0.58550    1.000
    H212     H        0.53960    0.47330    0.58300    1.000
    C243     C        0.20350    0.54040    0.39830    1.000
    H213     H        0.22080    0.58730    0.39100    1.000
    C244     C        0.15760    0.42150    0.37130    1.000
    C245     C        0.55450    0.29730    0.57410    1.000
    C246     C        0.19710    0.52430    0.44420    1.000
    C247     C        0.18330    0.32880    0.30630    1.000
    C248     C        0.99770    0.34450    0.59440    1.000
    H214     H        0.02780    0.35220    0.56970    1.000
    C249     C        0.91060    0.32060    0.66620    1.000
    H215     H        0.88140    0.31230    0.69130    1.000
    C250     C        0.89010    0.28190    0.62250    1.000
    C251     C        0.37460    0.45560    0.66350    1.000
    C252     C        0.17320    0.45550    0.45460    1.000
    H216     H        0.16970    0.44300    0.48660    1.000
    C253     C        0.18540    0.48940    0.36170    1.000
    H217     H        0.19210    0.50130    0.33000    1.000
    C254     C        0.97760    0.37180    0.32320    1.000
    H218     H        0.94230    0.33010    0.32460    1.000
    H219     H        0.98610    0.39750    0.35390    1.000
    H220     H        0.95260    0.40460    0.29750    1.000
    C255     C        0.44390    0.33170    0.61160    1.000
    H221     H        0.39940    0.31810    0.62570    1.000
    C256     C        0.15420    0.40400    0.41800    1.000
    H222     H        0.13870    0.35660    0.42550    1.000
    C257     C        0.27380    0.33230    0.31180    1.000
    H223     H        0.29140    0.30020    0.28830    1.000
    H224     H        0.29010    0.38210    0.30660    1.000
    H225     H        0.29840    0.31690    0.34430    1.000
    C258     C        0.38670    0.40270    0.70420    1.000
    H226     H        0.44040    0.38120    0.70760    1.000
    H227     H        0.38160    0.42770    0.73390    1.000
    H228     H        0.34600    0.36450    0.69760    1.000
    C259     C        0.16770    0.40490    0.72580    1.000
    H229     H        0.16340    0.43630    0.75310    1.000
    H230     H        0.13110    0.36360    0.72530    1.000
    H231     H        0.22300    0.38730    0.72900    1.000
    Mn8      Mn       0.71746    0.11996    0.58829    1.000
    O43      O        0.30000    0.70500    0.57215    1.000
    O44      O        0.28600    0.71230    0.64753    1.000
    O45      O        0.11430    0.68280    0.58110    1.000
    O46      O        0.13850    0.75560    0.52241    1.000
    O47      O        0.70120    0.06290    0.52437    1.000
    O48      O        0.73440    0.14200    0.47135    1.000
    N43      N        0.68800    0.00380    0.66940    1.000
    N44      N        0.56210    0.79700    0.27820    1.000
    N45      N        0.82620    0.01540    0.66270    1.000
    N46      N        0.82690    0.05630    0.62250    1.000
    N47      N        0.65620    0.03380    0.62550    1.000
    N48      N        0.63960    0.78560    0.27350    1.000
    C260     C        0.87890    0.02430    0.59880    1.000
    C261     C        0.89770    0.05370    0.55350    1.000
    H232     H        0.95240    0.07320    0.55940    1.000
    H233     H        0.89360    0.01490    0.52950    1.000
    H234     H        0.85950    0.09230    0.54150    1.000
    C262     C        0.53980    0.01060    0.56170    1.000
    H235     H        0.56100    0.98620    0.53590    1.000
    H236     H        0.48470    0.99410    0.56160    1.000
    H237     H        0.53980    0.06310    0.55650    1.000
    H238     H        0.47570    0.72210    0.27170    1.000
    C263     C        0.71180    0.08090    0.48320    1.000
    C264     C        0.32160    0.73050    0.61440    1.000
    C265     C        0.51740    0.88370    0.63710    1.000
    C266     C        0.58230    0.93850    0.64240    1.000
    C267     C        0.07160    0.87020    0.56790    1.000
    H239     H        0.11390    0.88350    0.55180    1.000
    C268     C        0.90950    0.95930    0.62310    1.000
    C269     C        0.55620    0.84630    0.31320    1.000
    C270     C        0.10610    0.74160    0.55760    1.000
    C271     C        0.99040    0.77920    0.59630    1.000
    H240     H        0.97870    0.72970    0.60080    1.000
    C272     C        0.64550    0.94680    0.68010    1.000
    C273     C        0.43580    0.79490    0.58730    1.000
    H241     H        0.42410    0.76910    0.55780    1.000
    C274     C        0.76650    0.03170    0.69180    1.000
    H242     H        0.78280    0.00970    0.72390    1.000
    H243     H        0.76310    0.08470    0.69590    1.000
    C275     C        0.63370    0.86820    0.33210    1.000
    C276     C        0.96090    0.90400    0.60680    1.000
    C277     C        0.47310    0.87090    0.67290    1.000
    H244     H        0.48560    0.89670    0.70230    1.000
    C278     C        0.59180    0.99280    0.60930    1.000
    C279     C        0.02620    0.92370    0.58550    1.000
    H245     H        0.03960    0.97330    0.58300    1.000
    C280     C        0.70350    0.04040    0.39830    1.000
    H246     H        0.72080    0.08730    0.39100    1.000
    C281     C        0.65760    0.92150    0.37130    1.000
    C282     C        0.05450    0.79730    0.57410    1.000
    C283     C        0.69710    0.02430    0.44420    1.000
    C284     C        0.68330    0.82880    0.30630    1.000
    C285     C        0.49770    0.84450    0.59440    1.000
    H247     H        0.52780    0.85220    0.56970    1.000
    C286     C        0.41060    0.82060    0.66620    1.000
    H248     H        0.38140    0.81230    0.69130    1.000
    C287     C        0.39010    0.78190    0.62250    1.000
    C288     C        0.87460    0.95560    0.66350    1.000
    C289     C        0.67320    0.95550    0.45460    1.000
    H249     H        0.66970    0.94300    0.48660    1.000
    C290     C        0.68540    0.98940    0.36170    1.000
    H250     H        0.69210    0.00130    0.33000    1.000
    C291     C        0.47760    0.87180    0.32320    1.000
    H251     H        0.44230    0.83010    0.32460    1.000
    H252     H        0.48610    0.89750    0.35390    1.000
    H253     H        0.45260    0.90460    0.29750    1.000
    C292     C        0.94390    0.83170    0.61160    1.000
    H254     H        0.89940    0.81810    0.62570    1.000
    C293     C        0.65420    0.90400    0.41800    1.000
    H255     H        0.63870    0.85660    0.42550    1.000
    C294     C        0.77380    0.83230    0.31180    1.000
    H256     H        0.79140    0.80020    0.28830    1.000
    H257     H        0.79010    0.88210    0.30660    1.000
    H258     H        0.79840    0.81690    0.34430    1.000
    C295     C        0.88670    0.90270    0.70420    1.000
    H259     H        0.94040    0.88120    0.70760    1.000
    H260     H        0.88160    0.92770    0.73390    1.000
    H261     H        0.84600    0.86450    0.69760    1.000
    C296     C        0.66770    0.90490    0.72580    1.000
    H262     H        0.66340    0.93630    0.75310    1.000
    H263     H        0.63110    0.86360    0.72530    1.000
    H264     H        0.72300    0.88730    0.72900    1.000
    Mn9      Mn       0.25000    0.25000    0.00000    1.000
    Mn10     Mn       0.75000    0.25000    0.50000    1.000
    Mn11     Mn       0.75000    0.75000    0.00000    1.000
    Mn12     Mn       0.25000    0.75000    0.50000    1.000
    C297     C        0.00000    0.74630    0.75000    1.000
    C298     C        0.50000    0.24630    0.75000    1.000
    C299     C        0.00000    0.25370    0.25000    1.000
    C300     C        0.50000    0.75370    0.25000    1.000
