# CIF file generated by openbabel 3.1.0, see https://openbabel.org
data_I
_chemical_name_common 'image0'
_cell_length_a 28.0956
_cell_length_b 28.0956
_cell_length_c 64.0922
_cell_angle_alpha 90
_cell_angle_beta 90
_cell_angle_gamma 120
_space_group_name_H-M_alt 'P 1'
_space_group_name_Hall 'P 1'
loop_
    _symmetry_equiv_pos_as_xyz
    x,y,z
loop_
    _atom_site_label
    _atom_site_type_symbol
    _atom_site_fract_x
    _atom_site_fract_y
    _atom_site_fract_z
    _atom_site_occupancy
    Rb1      Rb       0.78724    0.90110    0.14256    1.000
    O1       O        0.72650    0.18650    0.10710    1.000
    C1       C        0.57870    0.02590    0.06864    1.000
    Rb2      Rb       0.58794    0.78872    0.20662    1.000
    O2       O        0.68310    0.21800    0.09320    1.000
    C2       C        0.61340    0.02930    0.08470    1.000
    Rb3      Rb       0.54490    0.08557    0.11973    1.000
    O3       O        0.54610    0.97610    0.05788    1.000
    C3       C        0.64560    0.07650    0.09300    1.000
    H1       H        0.66900    0.07780    0.10360    1.000
    Rb4      Rb       0.43666    0.87523    0.06157    1.000
    O4       O        0.38550    0.92090    0.00050    1.000
    C4       C        0.64810    0.12800    0.08720    1.000
    Rb5      Rb       0.77240    0.14490    0.13378    1.000
    O5       O        0.31050    0.88290    0.02060    1.000
    C5       C        0.61140    0.12260    0.07131    1.000
    H2       H        0.60970    0.15340    0.06700    1.000
    O6       O        0.47820    0.06390    0.08209    1.000
    C6       C        0.57670    0.07100    0.06142    1.000
    O7       O        0.42650    0.10300    0.15760    1.000
    C7       C        0.68620    0.18010    0.09650    1.000
    O8       O        0.45850    0.05380    0.17710    1.000
    C8       C        0.57450    0.96760    0.04070    1.000
    H3       H        0.59550    0.95170    0.04590    1.000
    H4       H        0.54820    0.94330    0.03070    1.000
    H5       H        0.59870    0.00210    0.03420    1.000
    O9       O        0.39470    0.90310    0.09930    1.000
    C9       C        0.53670    0.06960    0.04500    1.000
    H6       H        0.54810    0.06330    0.03150    1.000
    H7       H        0.53960    0.10540    0.04450    1.000
    O10      O        0.44350    0.73710    0.09710    1.000
    C10      C        0.47750    0.02720    0.04820    1.000
    O11      O        0.51150    0.76740    0.07580    1.000
    C11      C        0.44900    0.99320    0.03310    1.000
    H8       H        0.46660    0.99470    0.02070    1.000
    O12      O        0.55060    0.98680    0.12384    1.000
    C12      C        0.39180    0.95380    0.03520    1.000
    C13      C        0.36650    0.95220    0.05430    1.000
    H9       H        0.32940    0.92710    0.05630    1.000
    C14      C        0.39690    0.98790    0.07010    1.000
    C15      C        0.45110    0.02730    0.06750    1.000
    C16      C        0.36030    0.91540    0.01570    1.000
    C17      C        0.47170    0.11080    0.07800    1.000
    H10      H        0.43900    0.10580    0.08470    1.000
    H11      H        0.50300    0.14340    0.08320    1.000
    H12      H        0.46860    0.11430    0.06320    1.000
    O13      O        0.57000    0.19200    0.11320    1.000
    C18      C        0.36790    0.98770    0.09120    1.000
    H13      H        0.33060    0.95700    0.09060    1.000
    H14      H        0.36530    0.02090    0.09140    1.000
    O14      O        0.86300    0.02200    0.29730    1.000
    C19      C        0.39190    0.98440    0.11140    1.000
    C20      C        0.40310    0.02220    0.12560    1.000
    H15      H        0.39710    0.05120    0.12270    1.000
    C21      C        0.42330    0.01940    0.14440    1.000
    C22      C        0.43710    0.97430    0.14470    1.000
    H16      H        0.45380    0.97330    0.15710    1.000
    O15      O        0.83370    0.23260    0.12740    1.000
    C23      C        0.43120    0.93740    0.13200    1.000
    O16      O        0.84340    0.11000    0.15550    1.000
    C24      C        0.40350    0.93930    0.11390    1.000
    O17      O        0.85500    0.13110    0.15720    1.000
    C25      C        0.43350    0.06360    0.16030    1.000
    O18      O        0.76920    0.04610    0.11022    1.000
    C26      C        0.34170    0.85610    0.10410    1.000
    H17      H        0.31510    0.85340    0.09410    1.000
    H18      H        0.34420    0.82320    0.10370    1.000
    H19      H        0.33050    0.86030    0.11780    1.000
    O19      O        0.74200    0.97170    0.09020    1.000
    C27      C        0.44850    0.89970    0.13790    1.000
    H20      H        0.47020    0.91290    0.15050    1.000
    H21      H        0.41640    0.86460    0.14100    1.000
    O20      O        0.77000    0.96500    0.08970    1.000
    C28      C        0.48340    0.89100    0.12080    1.000
    O21      O        0.59900    0.85930    0.17148    1.000
    C29      C        0.47150    0.83860    0.11130    1.000
    H22      H        0.43940    0.80690    0.11520    1.000
    O22      O        0.43930    0.64770    0.16910    1.000
    C30      C        0.50240    0.83420    0.09810    1.000
    O23      O        0.46380    0.60900    0.19110    1.000
    C31      C        0.54280    0.87390    0.09240    1.000
    H23      H        0.56400    0.86910    0.08230    1.000
    O24      O        0.48280    0.61000    0.18890    1.000
    C32      C        0.56280    0.93170    0.10000    1.000
    O25      O        0.68390    0.79480    0.14028    1.000
    C33      C        0.53290    0.93690    0.11490    1.000
    O26      O        0.88910    0.81500    0.14800    1.000
    C34      C        0.48640    0.77380    0.08960    1.000
    O27      O        0.93240    0.88890    0.17120    1.000
    C35      C        0.58490    0.99260    0.14060    1.000
    H24      H        0.61010    0.98070    0.13650    1.000
    H25      H        0.60510    0.03050    0.14470    1.000
    H26      H        0.56310    0.97070    0.15210    1.000
    O28      O        0.68670    0.78220    0.20338    1.000
    C36      C        0.61550    0.97820    0.09180    1.000
    H27      H        0.64330    0.98920    0.10260    1.000
    H28      H        0.62730    0.96490    0.08000    1.000
    O29      O        0.65170    0.88110    0.27170    1.000
    C37      C        0.67730    0.94650    0.16100    1.000
    O30      O        0.59320    0.90040    0.25520    1.000
    C38      C        0.71080    0.97910    0.14500    1.000
    H29      H        0.73600    0.01580    0.14760    1.000
    O31      O        0.76340    0.93950    0.18313    1.000
    C39      C        0.70780    0.95830    0.12490    1.000
    C40      C        0.66850    0.90160    0.12080    1.000
    H30      H        0.66660    0.88730    0.10760    1.000
    C41      C        0.63360    0.86810    0.13619    1.000
    O32      O        0.52780    0.67560    0.22480    1.000
    C42      C        0.63720    0.89240    0.15620    1.000
    O33      O        0.55150    0.67390    0.22170    1.000
    C43      C        0.74270    0.99580    0.10710    1.000
    C44      C        0.54980    0.86130    0.17080    1.000
    H31      H        0.55750    0.89780    0.17400    1.000
    H32      H        0.52440    0.83610    0.18090    1.000
    H33      H        0.53400    0.85110    0.15710    1.000
    O34      O        0.90550    0.97150    0.15620    1.000
    C45      C        0.59010    0.80880    0.13180    1.000
    H34      H        0.55430    0.80600    0.13240    1.000
    H35      H        0.59520    0.79990    0.11760    1.000
    O35      O        0.90420    0.95720    0.15000    1.000
    C46      C        0.59000    0.76650    0.14626    1.000
    O36      O        0.85130    0.01460    0.12680    1.000
    C47      C        0.54020    0.72920    0.15510    1.000
    H36      H        0.50910    0.73170    0.15210    1.000
    O37      O        0.84630    0.02570    0.13330    1.000
    C48      C        0.53560    0.68700    0.16886    1.000
    C49      C        0.58320    0.68510    0.17320    1.000
    H37      H        0.58110    0.65810    0.18210    1.000
    C50      C        0.63230    0.72140    0.16470    1.000
    C51      C        0.63680    0.76110    0.15045    1.000
    C52      C        0.47650    0.64710    0.17680    1.000
    C53      C        0.68740    0.77090    0.12060    1.000
    H38      H        0.67980    0.73400    0.12300    1.000
    H39      H        0.72360    0.79250    0.11490    1.000
    H40      H        0.66090    0.77040    0.11100    1.000
    C54      C        0.68240    0.71620    0.16960    1.000
    H41      H        0.69110    0.70200    0.15720    1.000
    H42      H        0.67240    0.68880    0.18050    1.000
    C55      C        0.73520    0.76850    0.17650    1.000
    C56      C        0.78640    0.78630    0.16760    1.000
    H43      H        0.78800    0.76650    0.15630    1.000
    C57      C        0.83420    0.83000    0.17390    1.000
    C58      C        0.83240    0.86140    0.18870    1.000
    H44      H        0.86450    0.89330    0.19250    1.000
    C59      C        0.78020    0.84720    0.19950    1.000
    C60      C        0.73470    0.80030    0.19290    1.000
    C61      C        0.89110    0.84460    0.16140    1.000
    C62      C        0.68010    0.74760    0.22140    1.000
    H45      H        0.69960    0.72820    0.21900    1.000
    H46      H        0.64180    0.72170    0.22340    1.000
    H47      H        0.69440    0.77020    0.23360    1.000
    C63      C        0.78030    0.88060    0.21740    1.000
    H48      H        0.81630    0.91330    0.21820    1.000
    H49      H        0.77520    0.85970    0.23010    1.000
    C64      C        0.73770    0.89830    0.21696    1.000
    C65      C        0.70540    0.88920    0.23437    1.000
    H50      H        0.71090    0.87210    0.24580    1.000
    C66      C        0.66500    0.90420    0.23600    1.000
    Rb6      Rb       0.78358    0.14122    0.12838    1.000
    C67      C        0.65830    0.92980    0.21859    1.000
    H51      H        0.63120    0.93960    0.21880    1.000
    C68      C        0.69070    0.94140    0.20075    1.000
    C69      C        0.72760    0.92520    0.20040    1.000
    C70      C        0.63660    0.89350    0.25520    1.000
    C71      C        0.81380    0.99390    0.18430    1.000
    H52      H        0.80440    0.02220    0.18300    1.000
    H53      H        0.83830    0.99720    0.17320    1.000
    H54      H        0.83150    0.99750    0.19750    1.000
    C72      C        0.68180    0.97010    0.18190    1.000
    H55      H        0.64860    0.97160    0.18440    1.000
    H56      H        0.71210    0.00770    0.18160    1.000
    Rb7      Rb       0.45391    0.23443    0.47589    1.000
    O38      O        0.39317    0.51983    0.44043    1.000
    C73      C        0.24537    0.35923    0.40197    1.000
    Rb8      Rb       0.25461    0.12205    0.53995    1.000
    O39      O        0.34977    0.55133    0.42653    1.000
    C74      C        0.28007    0.36263    0.41803    1.000
    Rb9      Rb       0.21157    0.41890    0.45306    1.000
    O40      O        0.21277    0.30943    0.39121    1.000
    C75      C        0.31227    0.40983    0.42633    1.000
    H57      H        0.33567    0.41113    0.43693    1.000
    Rb10     Rb       0.10333    0.20856    0.39490    1.000
    O41      O        0.05217    0.25423    0.33383    1.000
    C76      C        0.31477    0.46133    0.42053    1.000
    Rb11     Rb       0.43907    0.47823    0.46711    1.000
    O42      O        0.97717    0.21623    0.35393    1.000
    C77      C        0.27807    0.45593    0.40464    1.000
    H58      H        0.27637    0.48673    0.40033    1.000
    O43      O        0.14487    0.39723    0.41542    1.000
    C78      C        0.24337    0.40433    0.39475    1.000
    O44      O        0.09317    0.43633    0.49093    1.000
    C79      C        0.35287    0.51343    0.42983    1.000
    O45      O        0.12517    0.38713    0.51043    1.000
    C80      C        0.24117    0.30093    0.37403    1.000
    H59      H        0.26217    0.28503    0.37923    1.000
    H60      H        0.21487    0.27663    0.36403    1.000
    H61      H        0.26537    0.33543    0.36753    1.000
    O46      O        0.06137    0.23643    0.43263    1.000
    C81      C        0.20337    0.40293    0.37833    1.000
    H62      H        0.21477    0.39663    0.36483    1.000
    H63      H        0.20627    0.43873    0.37783    1.000
    O47      O        0.11017    0.07043    0.43043    1.000
    C82      C        0.14417    0.36053    0.38153    1.000
    O48      O        0.17817    0.10073    0.40913    1.000
    C83      C        0.11567    0.32653    0.36643    1.000
    H64      H        0.13327    0.32803    0.35403    1.000
    O49      O        0.21727    0.32013    0.45717    1.000
    C84      C        0.05847    0.28713    0.36853    1.000
    C85      C        0.03317    0.28553    0.38763    1.000
    H65      H        0.99607    0.26043    0.38963    1.000
    C86      C        0.06357    0.32123    0.40343    1.000
    C87      C        0.11777    0.36063    0.40083    1.000
    C88      C        0.02697    0.24873    0.34903    1.000
    C89      C        0.13837    0.44413    0.41133    1.000
    H66      H        0.10567    0.43913    0.41803    1.000
    H67      H        0.16967    0.47673    0.41653    1.000
    H68      H        0.13527    0.44763    0.39653    1.000
    O50      O        0.23667    0.52533    0.44653    1.000
    C90      C        0.03457    0.32103    0.42453    1.000
    H69      H        0.99727    0.29033    0.42393    1.000
    H70      H        0.03197    0.35423    0.42473    1.000
    O51      O        0.52967    0.35533    0.63063    1.000
    C91      C        0.05857    0.31773    0.44473    1.000
    C92      C        0.06977    0.35553    0.45893    1.000
    H71      H        0.06377    0.38453    0.45603    1.000
    C93      C        0.08997    0.35273    0.47773    1.000
    C94      C        0.10377    0.30763    0.47803    1.000
    H72      H        0.12047    0.30663    0.49043    1.000
    O52      O        0.50037    0.56593    0.46073    1.000
    C95      C        0.09787    0.27073    0.46533    1.000
    O53      O        0.51007    0.44333    0.48883    1.000
    C96      C        0.07017    0.27263    0.44723    1.000
    O54      O        0.52167    0.46443    0.49053    1.000
    C97      C        0.10017    0.39693    0.49363    1.000
    O55      O        0.43587    0.37943    0.44355    1.000
    C98      C        0.00837    0.18943    0.43743    1.000
    H73      H        0.98177    0.18673    0.42743    1.000
    H74      H        0.01087    0.15653    0.43703    1.000
    H75      H        0.99717    0.19363    0.45113    1.000
    O56      O        0.40867    0.30503    0.42353    1.000
    C99      C        0.11517    0.23303    0.47123    1.000
    H76      H        0.13687    0.24623    0.48383    1.000
    H77      H        0.08307    0.19793    0.47433    1.000
    O57      O        0.43667    0.29833    0.42303    1.000
    C100     C        0.15007    0.22433    0.45413    1.000
    O58      O        0.26567    0.19263    0.50481    1.000
    C101     C        0.13817    0.17193    0.44463    1.000
    H78      H        0.10607    0.14023    0.44853    1.000
    O59      O        0.10597    0.98103    0.50243    1.000
    C102     C        0.16907    0.16753    0.43143    1.000
    O60      O        0.13047    0.94233    0.52443    1.000
    C103     C        0.20947    0.20723    0.42573    1.000
    H79      H        0.23067    0.20243    0.41563    1.000
    O61      O        0.14947    0.94333    0.52223    1.000
    C104     C        0.22947    0.26503    0.43333    1.000
    O62      O        0.35057    0.12813    0.47361    1.000
    C105     C        0.19957    0.27023    0.44823    1.000
    O63      O        0.55577    0.14833    0.48133    1.000
    C106     C        0.15307    0.10713    0.42293    1.000
    O64      O        0.59907    0.22223    0.50453    1.000
    C107     C        0.25157    0.32593    0.47393    1.000
    H80      H        0.27677    0.31403    0.46983    1.000
    H81      H        0.27177    0.36383    0.47803    1.000
    H82      H        0.22977    0.30403    0.48543    1.000
    O65      O        0.35337    0.11553    0.53671    1.000
    C108     C        0.28217    0.31153    0.42513    1.000
    H83      H        0.30997    0.32253    0.43593    1.000
    H84      H        0.29397    0.29823    0.41333    1.000
    O66      O        0.31837    0.21443    0.60503    1.000
    C109     C        0.34397    0.27983    0.49433    1.000
    O67      O        0.25987    0.23373    0.58853    1.000
    C110     C        0.37747    0.31243    0.47833    1.000
    H85      H        0.40267    0.34913    0.48093    1.000
    O68      O        0.43007    0.27283    0.51646    1.000
    C111     C        0.37447    0.29163    0.45823    1.000
    C112     C        0.33517    0.23493    0.45413    1.000
    H86      H        0.33327    0.22063    0.44093    1.000
    C113     C        0.30027    0.20143    0.46952    1.000
    O69      O        0.19447    0.00893    0.55813    1.000
    C114     C        0.30387    0.22573    0.48953    1.000
    O70      O        0.21817    0.00723    0.55503    1.000
    C115     C        0.40937    0.32913    0.44043    1.000
    C116     C        0.21647    0.19463    0.50413    1.000
    H87      H        0.22417    0.23113    0.50733    1.000
    H88      H        0.19107    0.16943    0.51423    1.000
    H89      H        0.20067    0.18443    0.49043    1.000
    O71      O        0.57217    0.30483    0.48953    1.000
    C117     C        0.25677    0.14213    0.46513    1.000
    H90      H        0.22097    0.13933    0.46573    1.000
    H91      H        0.26187    0.13323    0.45093    1.000
    O72      O        0.57087    0.29053    0.48333    1.000
    C118     C        0.25667    0.09983    0.47959    1.000
    O73      O        0.51797    0.34793    0.46013    1.000
    C119     C        0.20687    0.06253    0.48843    1.000
    H92      H        0.17577    0.06503    0.48543    1.000
    O74      O        0.51297    0.35903    0.46663    1.000
    C120     C        0.20227    0.02033    0.50219    1.000
    C121     C        0.24987    0.01843    0.50653    1.000
    H93      H        0.24777    0.99143    0.51543    1.000
    C122     C        0.29897    0.05473    0.49803    1.000
    C123     C        0.30347    0.09443    0.48378    1.000
    C124     C        0.14317    0.98043    0.51013    1.000
    C125     C        0.35407    0.10423    0.45393    1.000
    H94      H        0.34647    0.06733    0.45633    1.000
    H95      H        0.39027    0.12583    0.44823    1.000
    H96      H        0.32757    0.10373    0.44433    1.000
    C126     C        0.34907    0.04953    0.50293    1.000
    H97      H        0.35777    0.03533    0.49053    1.000
    H98      H        0.33907    0.02213    0.51383    1.000
    C127     C        0.40187    0.10183    0.50983    1.000
    C128     C        0.45307    0.11963    0.50093    1.000
    H99      H        0.45467    0.09983    0.48963    1.000
    C129     C        0.50087    0.16333    0.50723    1.000
    C130     C        0.49907    0.19473    0.52203    1.000
    H100     H        0.53117    0.22663    0.52583    1.000
    C131     C        0.44687    0.18053    0.53283    1.000
    C132     C        0.40137    0.13363    0.52623    1.000
    C133     C        0.55777    0.17793    0.49473    1.000
    C134     C        0.34677    0.08093    0.55473    1.000
    H101     H        0.36627    0.06153    0.55233    1.000
    H102     H        0.30847    0.05503    0.55673    1.000
    H103     H        0.36107    0.10353    0.56693    1.000
    C135     C        0.44697    0.21393    0.55073    1.000
    H104     H        0.48297    0.24663    0.55153    1.000
    H105     H        0.44187    0.19303    0.56343    1.000
    C136     C        0.40437    0.23163    0.55029    1.000
    C137     C        0.37207    0.22253    0.56770    1.000
    H106     H        0.37757    0.20543    0.57913    1.000
    C138     C        0.33167    0.23753    0.56933    1.000
    Rb12     Rb       0.45025    0.47455    0.46171    1.000
    C139     C        0.32497    0.26313    0.55192    1.000
    H107     H        0.29787    0.27293    0.55213    1.000
    C140     C        0.35737    0.27473    0.53408    1.000
    C141     C        0.39427    0.25853    0.53373    1.000
    C142     C        0.30327    0.22683    0.58853    1.000
    C143     C        0.48047    0.32723    0.51763    1.000
    H108     H        0.47107    0.35553    0.51633    1.000
    H109     H        0.50497    0.33053    0.50653    1.000
    H110     H        0.49817    0.33083    0.53083    1.000
    C144     C        0.34847    0.30343    0.51523    1.000
    H111     H        0.31527    0.30493    0.51773    1.000
    H112     H        0.37877    0.34103    0.51493    1.000
    Rb13     Rb       0.12057    0.56777    0.80923    1.000
    O75      O        0.05983    0.85317    0.77377    1.000
    C145     C        0.91203    0.69257    0.73531    1.000
    Rb14     Rb       0.92127    0.45539    0.87329    1.000
    O76      O        0.01643    0.88467    0.75987    1.000
    C146     C        0.94673    0.69597    0.75137    1.000
    Rb15     Rb       0.87823    0.75224    0.78640    1.000
    O77      O        0.87943    0.64277    0.72455    1.000
    C147     C        0.97893    0.74317    0.75967    1.000
    H113     H        0.00233    0.74447    0.77027    1.000
    Rb16     Rb       0.76999    0.54190    0.72824    1.000
    O78      O        0.71883    0.58757    0.66717    1.000
    C148     C        0.98143    0.79467    0.75387    1.000
    Rb17     Rb       0.10573    0.81157    0.80045    1.000
    O79      O        0.64383    0.54957    0.68727    1.000
    C149     C        0.94473    0.78927    0.73798    1.000
    H114     H        0.94303    0.82007    0.73367    1.000
    O80      O        0.81153    0.73057    0.74876    1.000
    C150     C        0.91003    0.73767    0.72809    1.000
    O81      O        0.75983    0.76967    0.82427    1.000
    C151     C        0.01953    0.84677    0.76317    1.000
    O82      O        0.79183    0.72047    0.84377    1.000
    C152     C        0.90783    0.63427    0.70737    1.000
    H115     H        0.92883    0.61837    0.71257    1.000
    H116     H        0.88153    0.60997    0.69737    1.000
    H117     H        0.93203    0.66877    0.70087    1.000
    O83      O        0.72803    0.56977    0.76597    1.000
    C153     C        0.87003    0.73627    0.71167    1.000
    H118     H        0.88143    0.72997    0.69817    1.000
    H119     H        0.87293    0.77207    0.71117    1.000
    O84      O        0.77683    0.40377    0.76377    1.000
    C154     C        0.81083    0.69387    0.71487    1.000
    O85      O        0.84483    0.43407    0.74247    1.000
    C155     C        0.78233    0.65987    0.69977    1.000
    H120     H        0.79993    0.66137    0.68737    1.000
    O86      O        0.88393    0.65347    0.79051    1.000
    C156     C        0.72513    0.62047    0.70187    1.000
    C157     C        0.69983    0.61887    0.72097    1.000
    H121     H        0.66273    0.59377    0.72297    1.000
    C158     C        0.73023    0.65457    0.73677    1.000
    C159     C        0.78443    0.69397    0.73417    1.000
    C160     C        0.69363    0.58207    0.68237    1.000
    C161     C        0.80503    0.77747    0.74467    1.000
    H122     H        0.77233    0.77247    0.75137    1.000
    H123     H        0.83633    0.81007    0.74987    1.000
    H124     H        0.80193    0.78097    0.72987    1.000
    O87      O        0.90333    0.85867    0.77987    1.000
    C162     C        0.70123    0.65437    0.75787    1.000
    H125     H        0.66393    0.62367    0.75727    1.000
    H126     H        0.69863    0.68757    0.75807    1.000
    O88      O        0.19633    0.68867    0.96397    1.000
    C163     C        0.72523    0.65107    0.77807    1.000
    C164     C        0.73643    0.68887    0.79227    1.000
    H127     H        0.73043    0.71787    0.78937    1.000
    C165     C        0.75663    0.68607    0.81107    1.000
    C166     C        0.77043    0.64097    0.81137    1.000
    H128     H        0.78713    0.63997    0.82377    1.000
    O89      O        0.16703    0.89927    0.79407    1.000
    C167     C        0.76453    0.60407    0.79867    1.000
    O90      O        0.17673    0.77667    0.82217    1.000
    C168     C        0.73683    0.60597    0.78057    1.000
    O91      O        0.18833    0.79777    0.82387    1.000
    C169     C        0.76683    0.73027    0.82697    1.000
    O92      O        0.10253    0.71277    0.77689    1.000
    C170     C        0.67503    0.52277    0.77077    1.000
    H129     H        0.64843    0.52007    0.76077    1.000
    H130     H        0.67753    0.48987    0.77037    1.000
    H131     H        0.66383    0.52697    0.78447    1.000
    O93      O        0.07533    0.63837    0.75687    1.000
    C171     C        0.78183    0.56637    0.80457    1.000
    H132     H        0.80353    0.57957    0.81717    1.000
    H133     H        0.74973    0.53127    0.80767    1.000
    O94      O        0.10333    0.63167    0.75637    1.000
    C172     C        0.81673    0.55767    0.78747    1.000
    O95      O        0.93233    0.52597    0.83815    1.000
    C173     C        0.80483    0.50527    0.77797    1.000
    H134     H        0.77273    0.47357    0.78187    1.000
    O96      O        0.77263    0.31437    0.83577    1.000
    C174     C        0.83573    0.50087    0.76477    1.000
    O97      O        0.79713    0.27567    0.85777    1.000
    C175     C        0.87613    0.54057    0.75907    1.000
    H135     H        0.89733    0.53577    0.74897    1.000
    O98      O        0.81613    0.27667    0.85557    1.000
    C176     C        0.89613    0.59837    0.76667    1.000
    O99      O        0.01723    0.46147    0.80695    1.000
    C177     C        0.86623    0.60357    0.78157    1.000
    O100     O        0.22243    0.48167    0.81467    1.000
    C178     C        0.81973    0.44047    0.75627    1.000
    O101     O        0.26573    0.55557    0.83787    1.000
    C179     C        0.91823    0.65927    0.80727    1.000
    H136     H        0.94343    0.64737    0.80317    1.000
    H137     H        0.93843    0.69717    0.81137    1.000
    H138     H        0.89643    0.63737    0.81877    1.000
    O102     O        0.02003    0.44887    0.87005    1.000
    C180     C        0.94883    0.64487    0.75847    1.000
    H139     H        0.97663    0.65587    0.76927    1.000
    H140     H        0.96063    0.63157    0.74667    1.000
    O103     O        0.98503    0.54777    0.93837    1.000
    C181     C        0.01063    0.61317    0.82767    1.000
    O104     O        0.92653    0.56707    0.92187    1.000
    C182     C        0.04413    0.64577    0.81167    1.000
    H141     H        0.06933    0.68247    0.81427    1.000
    O105     O        0.09673    0.60617    0.84980    1.000
    C183     C        0.04113    0.62497    0.79157    1.000
    C184     C        0.00183    0.56827    0.78747    1.000
    H142     H        0.99993    0.55397    0.77427    1.000
    C185     C        0.96693    0.53477    0.80286    1.000
    O106     O        0.86113    0.34227    0.89147    1.000
    C186     C        0.97053    0.55907    0.82287    1.000
    O107     O        0.88483    0.34057    0.88837    1.000
    C187     C        0.07603    0.66247    0.77377    1.000
    C188     C        0.88313    0.52797    0.83747    1.000
    H143     H        0.89083    0.56447    0.84067    1.000
    H144     H        0.85773    0.50277    0.84757    1.000
    H145     H        0.86733    0.51777    0.82377    1.000
    O108     O        0.23883    0.63817    0.82287    1.000
    C189     C        0.92343    0.47547    0.79847    1.000
    H146     H        0.88763    0.47267    0.79907    1.000
    H147     H        0.92853    0.46657    0.78427    1.000
    O109     O        0.23753    0.62387    0.81667    1.000
    C190     C        0.92333    0.43317    0.81293    1.000
    O110     O        0.18463    0.68127    0.79347    1.000
    C191     C        0.87353    0.39587    0.82177    1.000
    H148     H        0.84243    0.39837    0.81877    1.000
    O111     O        0.17963    0.69237    0.79997    1.000
    C192     C        0.86893    0.35367    0.83553    1.000
    C193     C        0.91653    0.35177    0.83987    1.000
    H149     H        0.91443    0.32477    0.84877    1.000
    C194     C        0.96563    0.38807    0.83137    1.000
    C195     C        0.97013    0.42777    0.81712    1.000
    C196     C        0.80983    0.31377    0.84347    1.000
    C197     C        0.02073    0.43757    0.78727    1.000
    H150     H        0.01313    0.40067    0.78967    1.000
    H151     H        0.05693    0.45917    0.78157    1.000
    H152     H        0.99423    0.43707    0.77767    1.000
    C198     C        0.01573    0.38287    0.83627    1.000
    H153     H        0.02443    0.36867    0.82387    1.000
    H154     H        0.00573    0.35547    0.84717    1.000
    C199     C        0.06853    0.43517    0.84317    1.000
    C200     C        0.11973    0.45297    0.83427    1.000
    H155     H        0.12133    0.43317    0.82297    1.000
    C201     C        0.16753    0.49667    0.84057    1.000
    C202     C        0.16573    0.52807    0.85537    1.000
    H156     H        0.19783    0.55997    0.85917    1.000
    C203     C        0.11353    0.51387    0.86617    1.000
    C204     C        0.06803    0.46697    0.85957    1.000
    C205     C        0.22443    0.51127    0.82807    1.000
    C206     C        0.01343    0.41427    0.88807    1.000
    H157     H        0.03293    0.39487    0.88567    1.000
    H158     H        0.97513    0.38837    0.89007    1.000
    H159     H        0.02773    0.43687    0.90027    1.000
    C207     C        0.11363    0.54727    0.88407    1.000
    H160     H        0.14963    0.57997    0.88487    1.000
    H161     H        0.10853    0.52637    0.89677    1.000
    C208     C        0.07103    0.56497    0.88363    1.000
    C209     C        0.03873    0.55587    0.90104    1.000
    H162     H        0.04423    0.53877    0.91247    1.000
    C210     C        0.99833    0.57087    0.90267    1.000
    Rb18     Rb       0.11691    0.80789    0.79505    1.000
    C211     C        0.99163    0.59647    0.88526    1.000
    H163     H        0.96453    0.60627    0.88547    1.000
    C212     C        0.02403    0.60807    0.86742    1.000
    C213     C        0.06093    0.59187    0.86707    1.000
    C214     C        0.96993    0.56017    0.92187    1.000
    C215     C        0.14713    0.66057    0.85097    1.000
    H164     H        0.13773    0.68887    0.84967    1.000
    H165     H        0.17163    0.66387    0.83987    1.000
    H166     H        0.16483    0.66417    0.86417    1.000
    C216     C        0.01513    0.63677    0.84857    1.000
    H167     H        0.98193    0.63827    0.85107    1.000
    H168     H        0.04543    0.67437    0.84827    1.000
    Rb19     Rb       0.09890    0.88614    0.14256    1.000
    O112     O        0.81350    0.54000    0.10710    1.000
    C217     C        0.97410    0.55280    0.06864    1.000
    Rb20     Rb       0.21128    0.79922    0.20662    1.000
    O113     O        0.78200    0.46510    0.09320    1.000
    C218     C        0.97070    0.58410    0.08470    1.000
    Rb21     Rb       0.91443    0.45933    0.11973    1.000
    O114     O        0.02390    0.57000    0.05788    1.000
    C219     C        0.92350    0.56910    0.09300    1.000
    H169     H        0.92220    0.59120    0.10360    1.000
    Rb22     Rb       0.12477    0.56143    0.06157    1.000
    O115     O        0.07910    0.46460    0.00050    1.000
    C220     C        0.87200    0.52010    0.08720    1.000
    Rb23     Rb       0.85510    0.62750    0.13378    1.000
    O116     O        0.11710    0.42760    0.02060    1.000
    C221     C        0.87740    0.48880    0.07131    1.000
    H170     H        0.84660    0.45630    0.06700    1.000
    O117     O        0.93610    0.41430    0.08209    1.000
    C222     C        0.92900    0.50570    0.06142    1.000
    O118     O        0.89700    0.32350    0.15760    1.000
    C223     C        0.81990    0.50610    0.09650    1.000
    O119     O        0.94620    0.40470    0.17710    1.000
    C224     C        0.03240    0.60690    0.04070    1.000
    H171     H        0.04830    0.64380    0.04590    1.000
    H172     H        0.05670    0.60490    0.03070    1.000
    H173     H        0.99790    0.59660    0.03420    1.000
    O120     O        0.09690    0.49160    0.09930    1.000
    C225     C        0.93040    0.46710    0.04500    1.000
    H174     H        0.93670    0.48480    0.03150    1.000
    H175     H        0.89460    0.43420    0.04450    1.000
    O121     O        0.26290    0.70640    0.09710    1.000
    C226     C        0.97280    0.45030    0.04820    1.000
    O122     O        0.23260    0.74410    0.07580    1.000
    C227     C        0.00680    0.45580    0.03310    1.000
    H176     H        0.00530    0.47190    0.02070    1.000
    O123     O        0.01320    0.56380    0.12384    1.000
    C228     C        0.04620    0.43800    0.03520    1.000
    C229     C        0.04780    0.41430    0.05430    1.000
    H177     H        0.07290    0.40230    0.05630    1.000
    C230     C        0.01210    0.40900    0.07010    1.000
    C231     C        0.97270    0.42380    0.06750    1.000
    C232     C        0.08460    0.44490    0.01570    1.000
    C233     C        0.88920    0.36090    0.07800    1.000
    H178     H        0.89420    0.33320    0.08470    1.000
    H179     H        0.85660    0.35960    0.08320    1.000
    H180     H        0.88570    0.35430    0.06320    1.000
    O124     O        0.80800    0.37800    0.11320    1.000
    C234     C        0.01230    0.38020    0.09120    1.000
    H181     H        0.04300    0.37360    0.09060    1.000
    H182     H        0.97910    0.34440    0.09140    1.000
    O125     O        0.97800    0.84100    0.29730    1.000
    C235     C        0.01560    0.40750    0.11140    1.000
    C236     C        0.97780    0.38090    0.12560    1.000
    H183     H        0.94880    0.34590    0.12270    1.000
    C237     C        0.98060    0.40390    0.14440    1.000
    C238     C        0.02570    0.46280    0.14470    1.000
    H184     H        0.02670    0.48050    0.15710    1.000
    O126     O        0.76740    0.60110    0.12740    1.000
    C239     C        0.06260    0.49380    0.13200    1.000
    O127     O        0.89000    0.73340    0.15550    1.000
    C240     C        0.06070    0.46420    0.11390    1.000
    O128     O        0.86890    0.72390    0.15720    1.000
    C241     C        0.93640    0.36990    0.16030    1.000
    O129     O        0.95390    0.72310    0.11022    1.000
    C242     C        0.14390    0.48560    0.10410    1.000
    H185     H        0.14660    0.46170    0.09410    1.000
    H186     H        0.17680    0.52100    0.10370    1.000
    H187     H        0.13970    0.47020    0.11780    1.000
    O130     O        0.02830    0.77030    0.09020    1.000
    C243     C        0.10030    0.54880    0.13790    1.000
    H188     H        0.08710    0.55730    0.15050    1.000
    H189     H        0.13540    0.55180    0.14100    1.000
    O131     O        0.03500    0.80500    0.08970    1.000
    C244     C        0.10900    0.59240    0.12080    1.000
    O132     O        0.14070    0.73970    0.17148    1.000
    C245     C        0.16140    0.63290    0.11130    1.000
    H190     H        0.19310    0.63250    0.11520    1.000
    O133     O        0.35230    0.79160    0.16910    1.000
    C246     C        0.16580    0.66820    0.09810    1.000
    O134     O        0.39100    0.85480    0.19110    1.000
    C247     C        0.12610    0.66890    0.09240    1.000
    H191     H        0.13090    0.69490    0.08230    1.000
    O135     O        0.39000    0.87280    0.18890    1.000
    C248     C        0.06830    0.63110    0.10000    1.000
    O136     O        0.20520    0.88910    0.14028    1.000
    C249     C        0.06310    0.59600    0.11490    1.000
    O137     O        0.18500    0.07410    0.14800    1.000
    C250     C        0.22620    0.71260    0.08960    1.000
    O138     O        0.11110    0.04350    0.17120    1.000
    C251     C        0.00740    0.59230    0.14060    1.000
    H192     H        0.01930    0.62940    0.13650    1.000
    H193     H        0.96950    0.57460    0.14470    1.000
    H194     H        0.02930    0.59240    0.15210    1.000
    O139     O        0.21780    0.90450    0.20338    1.000
    C252     C        0.02180    0.63730    0.09180    1.000
    H195     H        0.01080    0.65410    0.10260    1.000
    H196     H        0.03510    0.66240    0.08000    1.000
    O140     O        0.11890    0.77060    0.27170    1.000
    C253     C        0.05350    0.73080    0.16100    1.000
    O141     O        0.09960    0.69280    0.25520    1.000
    C254     C        0.02090    0.73170    0.14500    1.000
    H197     H        0.98420    0.72020    0.14760    1.000
    O142     O        0.06050    0.82390    0.18313    1.000
    C255     C        0.04170    0.74950    0.12490    1.000
    C256     C        0.09840    0.76690    0.12080    1.000
    H198     H        0.11270    0.77930    0.10760    1.000
    C257     C        0.13190    0.76550    0.13619    1.000
    O143     O        0.32440    0.85220    0.22480    1.000
    C258     C        0.10760    0.74480    0.15620    1.000
    O144     O        0.32610    0.87760    0.22170    1.000
    C259     C        0.00420    0.74690    0.10710    1.000
    C260     C        0.13870    0.68850    0.17080    1.000
    H199     H        0.10220    0.65970    0.17400    1.000
    H200     H        0.16390    0.68830    0.18090    1.000
    H201     H        0.14890    0.68290    0.15710    1.000
    O145     O        0.02850    0.93400    0.15620    1.000
    C261     C        0.19120    0.78130    0.13180    1.000
    H202     H        0.19400    0.74830    0.13240    1.000
    H203     H        0.20010    0.79530    0.11760    1.000
    O146     O        0.04280    0.94700    0.15000    1.000
    C262     C        0.23350    0.82350    0.14626    1.000
    O147     O        0.98540    0.83670    0.12680    1.000
    C263     C        0.27080    0.81100    0.15510    1.000
    H204     H        0.26830    0.77740    0.15210    1.000
    O148     O        0.97430    0.82060    0.13330    1.000
    C264     C        0.31300    0.84860    0.16886    1.000
    C265     C        0.31490    0.89810    0.17320    1.000
    H205     H        0.34190    0.92300    0.18210    1.000
    C266     C        0.27860    0.91090    0.16470    1.000
    C267     C        0.23890    0.87570    0.15045    1.000
    C268     C        0.35290    0.82940    0.17680    1.000
    C269     C        0.22910    0.91650    0.12060    1.000
    H206     H        0.26600    0.94580    0.12300    1.000
    H207     H        0.20750    0.93110    0.11490    1.000
    H208     H        0.22960    0.89050    0.11100    1.000
    C270     C        0.28380    0.96620    0.16960    1.000
    H209     H        0.29800    0.98910    0.15720    1.000
    H210     H        0.31120    0.98360    0.18050    1.000
    C271     C        0.23150    0.96670    0.17650    1.000
    C272     C        0.21370    0.00010    0.16760    1.000
    H211     H        0.23350    0.02150    0.15630    1.000
    C273     C        0.17000    0.00420    0.17390    1.000
    C274     C        0.13860    0.97100    0.18870    1.000
    H212     H        0.10670    0.97120    0.19250    1.000
    C275     C        0.15280    0.93300    0.19950    1.000
    C276     C        0.19970    0.93440    0.19290    1.000
    C277     C        0.15540    0.04650    0.16140    1.000
    C278     C        0.25240    0.93250    0.22140    1.000
    H213     H        0.27180    0.97140    0.21900    1.000
    H214     H        0.27830    0.92010    0.22340    1.000
    H215     H        0.22980    0.92420    0.23360    1.000
    C279     C        0.11940    0.89970    0.21740    1.000
    H216     H        0.08670    0.90300    0.21820    1.000
    H217     H        0.14030    0.91550    0.23010    1.000
    C280     C        0.10170    0.83940    0.21696    1.000
    C281     C        0.11080    0.81620    0.23437    1.000
    H218     H        0.12790    0.83880    0.24580    1.000
    C282     C        0.09580    0.76080    0.23600    1.000
    Rb24     Rb       0.85878    0.64236    0.12838    1.000
    C283     C        0.07020    0.72850    0.21859    1.000
    H219     H        0.06040    0.69160    0.21880    1.000
    C284     C        0.05860    0.74930    0.20075    1.000
    C285     C        0.07480    0.80240    0.20040    1.000
    C286     C        0.10650    0.74310    0.25520    1.000
    C287     C        0.00610    0.81990    0.18430    1.000
    H220     H        0.97780    0.78220    0.18300    1.000
    H221     H        0.00280    0.84110    0.17320    1.000
    H222     H        0.00250    0.83400    0.19750    1.000
    C288     C        0.02990    0.71170    0.18190    1.000
    H223     H        0.02840    0.67700    0.18440    1.000
    H224     H        0.99230    0.70440    0.18160    1.000
    Rb25     Rb       0.76557    0.21947    0.47589    1.000
    O149     O        0.48017    0.87333    0.44043    1.000
    C289     C        0.64077    0.88613    0.40197    1.000
    Rb26     Rb       0.87795    0.13255    0.53995    1.000
    O150     O        0.44867    0.79843    0.42653    1.000
    C290     C        0.63737    0.91743    0.41803    1.000
    Rb27     Rb       0.58110    0.79266    0.45306    1.000
    O151     O        0.69057    0.90333    0.39121    1.000
    C291     C        0.59017    0.90243    0.42633    1.000
    H225     H        0.58887    0.92453    0.43693    1.000
    Rb28     Rb       0.79144    0.89476    0.39490    1.000
    O152     O        0.74577    0.79793    0.33383    1.000
    C292     C        0.53867    0.85343    0.42053    1.000
    Rb29     Rb       0.52177    0.96083    0.46711    1.000
    O153     O        0.78377    0.76093    0.35393    1.000
    C293     C        0.54407    0.82213    0.40464    1.000
    H226     H        0.51327    0.78963    0.40033    1.000
    O154     O        0.60277    0.74763    0.41542    1.000
    C294     C        0.59567    0.83903    0.39475    1.000
    O155     O        0.56367    0.65683    0.49093    1.000
    C295     C        0.48657    0.83943    0.42983    1.000
    O156     O        0.61287    0.73803    0.51043    1.000
    C296     C        0.69907    0.94023    0.37403    1.000
    H227     H        0.71497    0.97713    0.37923    1.000
    H228     H        0.72337    0.93823    0.36403    1.000
    H229     H        0.66457    0.92993    0.36753    1.000
    O157     O        0.76357    0.82493    0.43263    1.000
    C297     C        0.59707    0.80043    0.37833    1.000
    H230     H        0.60337    0.81813    0.36483    1.000
    H231     H        0.56127    0.76753    0.37783    1.000
    O158     O        0.92957    0.03973    0.43043    1.000
    C298     C        0.63947    0.78363    0.38153    1.000
    O159     O        0.89927    0.07743    0.40913    1.000
    C299     C        0.67347    0.78913    0.36643    1.000
    H232     H        0.67197    0.80523    0.35403    1.000
    O160     O        0.67987    0.89713    0.45717    1.000
    C300     C        0.71287    0.77133    0.36853    1.000
    C301     C        0.71447    0.74763    0.38763    1.000
    H233     H        0.73957    0.73563    0.38963    1.000
    C302     C        0.67877    0.74233    0.40343    1.000
    C303     C        0.63937    0.75713    0.40083    1.000
    C304     C        0.75127    0.77823    0.34903    1.000
    C305     C        0.55587    0.69423    0.41133    1.000
    H234     H        0.56087    0.66653    0.41803    1.000
    H235     H        0.52327    0.69293    0.41653    1.000
    H236     H        0.55237    0.68763    0.39653    1.000
    O161     O        0.47467    0.71133    0.44653    1.000
    C306     C        0.67897    0.71353    0.42453    1.000
    H237     H        0.70967    0.70693    0.42393    1.000
    H238     H        0.64577    0.67773    0.42473    1.000
    O162     O        0.64467    0.17433    0.63063    1.000
    C307     C        0.68227    0.74083    0.44473    1.000
    C308     C        0.64447    0.71423    0.45893    1.000
    H239     H        0.61547    0.67923    0.45603    1.000
    C309     C        0.64727    0.73723    0.47773    1.000
    C310     C        0.69237    0.79613    0.47803    1.000
    H240     H        0.69337    0.81383    0.49043    1.000
    O163     O        0.43407    0.93443    0.46073    1.000
    C311     C        0.72927    0.82713    0.46533    1.000
    O164     O        0.55667    0.06673    0.48883    1.000
    C312     C        0.72737    0.79753    0.44723    1.000
    O165     O        0.53557    0.05723    0.49053    1.000
    C313     C        0.60307    0.70323    0.49363    1.000
    O166     O        0.62057    0.05643    0.44355    1.000
    C314     C        0.81057    0.81893    0.43743    1.000
    H241     H        0.81327    0.79503    0.42743    1.000
    H242     H        0.84347    0.85433    0.43703    1.000
    H243     H        0.80637    0.80353    0.45113    1.000
    O167     O        0.69497    0.10363    0.42353    1.000
    C315     C        0.76697    0.88213    0.47123    1.000
    H244     H        0.75377    0.89063    0.48383    1.000
    H245     H        0.80207    0.88513    0.47433    1.000
    O168     O        0.70167    0.13833    0.42303    1.000
    C316     C        0.77567    0.92573    0.45413    1.000
    O169     O        0.80737    0.07303    0.50481    1.000
    C317     C        0.82807    0.96623    0.44463    1.000
    H246     H        0.85977    0.96583    0.44853    1.000
    O170     O        0.01897    0.12493    0.50243    1.000
    C318     C        0.83247    0.00153    0.43143    1.000
    O171     O        0.05767    0.18813    0.52443    1.000
    C319     C        0.79277    0.00223    0.42573    1.000
    H247     H        0.79757    0.02823    0.41563    1.000
    O172     O        0.05667    0.20613    0.52223    1.000
    C320     C        0.73497    0.96443    0.43333    1.000
    O173     O        0.87187    0.22243    0.47361    1.000
    C321     C        0.72977    0.92933    0.44823    1.000
    O174     O        0.85167    0.40743    0.48133    1.000
    C322     C        0.89287    0.04593    0.42293    1.000
    O175     O        0.77777    0.37683    0.50453    1.000
    C323     C        0.67407    0.92563    0.47393    1.000
    H248     H        0.68597    0.96273    0.46983    1.000
    H249     H        0.63617    0.90793    0.47803    1.000
    H250     H        0.69597    0.92573    0.48543    1.000
    O176     O        0.88447    0.23783    0.53671    1.000
    C324     C        0.68847    0.97063    0.42513    1.000
    H251     H        0.67747    0.98743    0.43593    1.000
    H252     H        0.70177    0.99573    0.41333    1.000
    O177     O        0.78557    0.10393    0.60503    1.000
    C325     C        0.72017    0.06413    0.49433    1.000
    O178     O        0.76627    0.02613    0.58853    1.000
    C326     C        0.68757    0.06503    0.47833    1.000
    H253     H        0.65087    0.05353    0.48093    1.000
    O179     O        0.72717    0.15723    0.51646    1.000
    C327     C        0.70837    0.08283    0.45823    1.000
    C328     C        0.76507    0.10023    0.45413    1.000
    H254     H        0.77937    0.11263    0.44093    1.000
    C329     C        0.79857    0.09883    0.46952    1.000
    O180     O        0.99107    0.18553    0.55813    1.000
    C330     C        0.77427    0.07813    0.48953    1.000
    O181     O        0.99277    0.21093    0.55503    1.000
    C331     C        0.67087    0.08023    0.44043    1.000
    C332     C        0.80537    0.02183    0.50413    1.000
    H255     H        0.76887    0.99303    0.50733    1.000
    H256     H        0.83057    0.02163    0.51423    1.000
    H257     H        0.81557    0.01623    0.49043    1.000
    O182     O        0.69517    0.26733    0.48953    1.000
    C333     C        0.85787    0.11463    0.46513    1.000
    H258     H        0.86067    0.08163    0.46573    1.000
    H259     H        0.86677    0.12863    0.45093    1.000
    O183     O        0.70947    0.28033    0.48333    1.000
    C334     C        0.90017    0.15683    0.47959    1.000
    O184     O        0.65207    0.17003    0.46013    1.000
    C335     C        0.93747    0.14433    0.48843    1.000
    H260     H        0.93497    0.11073    0.48543    1.000
    O185     O        0.64097    0.15393    0.46663    1.000
    C336     C        0.97967    0.18193    0.50219    1.000
    C337     C        0.98157    0.23143    0.50653    1.000
    H261     H        0.00857    0.25633    0.51543    1.000
    C338     C        0.94527    0.24423    0.49803    1.000
    C339     C        0.90557    0.20903    0.48378    1.000
    C340     C        0.01957    0.16273    0.51013    1.000
    C341     C        0.89577    0.24983    0.45393    1.000
    H262     H        0.93267    0.27913    0.45633    1.000
    H263     H        0.87417    0.26443    0.44823    1.000
    H264     H        0.89627    0.22383    0.44433    1.000
    C342     C        0.95047    0.29953    0.50293    1.000
    H265     H        0.96467    0.32243    0.49053    1.000
    H266     H        0.97787    0.31693    0.51383    1.000
    C343     C        0.89817    0.30003    0.50983    1.000
    C344     C        0.88037    0.33343    0.50093    1.000
    H267     H        0.90017    0.35483    0.48963    1.000
    C345     C        0.83667    0.33753    0.50723    1.000
    C346     C        0.80527    0.30433    0.52203    1.000
    H268     H        0.77337    0.30453    0.52583    1.000
    C347     C        0.81947    0.26633    0.53283    1.000
    C348     C        0.86637    0.26773    0.52623    1.000
    C349     C        0.82207    0.37983    0.49473    1.000
    C350     C        0.91907    0.26583    0.55473    1.000
    H269     H        0.93847    0.30473    0.55233    1.000
    H270     H        0.94497    0.25343    0.55673    1.000
    H271     H        0.89647    0.25753    0.56693    1.000
    C351     C        0.78607    0.23303    0.55073    1.000
    H272     H        0.75337    0.23633    0.55153    1.000
    H273     H        0.80697    0.24883    0.56343    1.000
    C352     C        0.76837    0.17273    0.55029    1.000
    C353     C        0.77747    0.14953    0.56770    1.000
    H274     H        0.79457    0.17213    0.57913    1.000
    C354     C        0.76247    0.09413    0.56933    1.000
    Rb30     Rb       0.52545    0.97569    0.46171    1.000
    C355     C        0.73687    0.06183    0.55192    1.000
    H275     H        0.72707    0.02493    0.55213    1.000
    C356     C        0.72527    0.08263    0.53408    1.000
    C357     C        0.74147    0.13573    0.53373    1.000
    C358     C        0.77317    0.07643    0.58853    1.000
    C359     C        0.67277    0.15323    0.51763    1.000
    H276     H        0.64447    0.11553    0.51633    1.000
    H277     H        0.66947    0.17443    0.50653    1.000
    H278     H        0.66917    0.16733    0.53083    1.000
    C360     C        0.69657    0.04503    0.51523    1.000
    H279     H        0.69507    0.01033    0.51773    1.000
    H280     H        0.65897    0.03773    0.51493    1.000
    Rb31     Rb       0.43223    0.55281    0.80923    1.000
    O186     O        0.14683    0.20667    0.77377    1.000
    C361     C        0.30743    0.21947    0.73531    1.000
    Rb32     Rb       0.54461    0.46589    0.87329    1.000
    O187     O        0.11533    0.13177    0.75987    1.000
    C362     C        0.30403    0.25077    0.75137    1.000
    Rb33     Rb       0.24776    0.12600    0.78640    1.000
    O188     O        0.35723    0.23667    0.72455    1.000
    C363     C        0.25683    0.23577    0.75967    1.000
    H281     H        0.25553    0.25787    0.77027    1.000
    Rb34     Rb       0.45810    0.22810    0.72824    1.000
    O189     O        0.41243    0.13127    0.66717    1.000
    C364     C        0.20533    0.18677    0.75387    1.000
    Rb35     Rb       0.18843    0.29417    0.80045    1.000
    O190     O        0.45043    0.09427    0.68727    1.000
    C365     C        0.21073    0.15547    0.73798    1.000
    H282     H        0.17993    0.12297    0.73367    1.000
    O191     O        0.26943    0.08097    0.74876    1.000
    C366     C        0.26233    0.17237    0.72809    1.000
    O192     O        0.23033    0.99017    0.82427    1.000
    C367     C        0.15323    0.17277    0.76317    1.000
    O193     O        0.27953    0.07137    0.84377    1.000
    C368     C        0.36573    0.27357    0.70737    1.000
    H283     H        0.38163    0.31047    0.71257    1.000
    H284     H        0.39003    0.27157    0.69737    1.000
    H285     H        0.33123    0.26327    0.70087    1.000
    O194     O        0.43023    0.15827    0.76597    1.000
    C369     C        0.26373    0.13377    0.71167    1.000
    H286     H        0.27003    0.15147    0.69817    1.000
    H287     H        0.22793    0.10087    0.71117    1.000
    O195     O        0.59623    0.37307    0.76377    1.000
    C370     C        0.30613    0.11697    0.71487    1.000
    O196     O        0.56593    0.41077    0.74247    1.000
    C371     C        0.34013    0.12247    0.69977    1.000
    H288     H        0.33863    0.13857    0.68737    1.000
    O197     O        0.34653    0.23047    0.79051    1.000
    C372     C        0.37953    0.10467    0.70187    1.000
    C373     C        0.38113    0.08097    0.72097    1.000
    H289     H        0.40623    0.06897    0.72297    1.000
    C374     C        0.34543    0.07567    0.73677    1.000
    C375     C        0.30603    0.09047    0.73417    1.000
    C376     C        0.41793    0.11157    0.68237    1.000
    C377     C        0.22253    0.02757    0.74467    1.000
    H290     H        0.22753    0.99987    0.75137    1.000
    H291     H        0.18993    0.02627    0.74987    1.000
    H292     H        0.21903    0.02097    0.72987    1.000
    O198     O        0.14133    0.04467    0.77987    1.000
    C378     C        0.34563    0.04687    0.75787    1.000
    H293     H        0.37633    0.04027    0.75727    1.000
    H294     H        0.31243    0.01107    0.75807    1.000
    O199     O        0.31133    0.50767    0.96397    1.000
    C379     C        0.34893    0.07417    0.77807    1.000
    C380     C        0.31113    0.04757    0.79227    1.000
    H295     H        0.28213    0.01257    0.78937    1.000
    C381     C        0.31393    0.07057    0.81107    1.000
    C382     C        0.35903    0.12947    0.81137    1.000
    H296     H        0.36003    0.14717    0.82377    1.000
    O200     O        0.10073    0.26777    0.79407    1.000
    C383     C        0.39593    0.16047    0.79867    1.000
    O201     O        0.22333    0.40007    0.82217    1.000
    C384     C        0.39403    0.13087    0.78057    1.000
    O202     O        0.20223    0.39057    0.82387    1.000
    C385     C        0.26973    0.03657    0.82697    1.000
    O203     O        0.28723    0.38977    0.77689    1.000
    C386     C        0.47723    0.15227    0.77077    1.000
    H297     H        0.47993    0.12837    0.76077    1.000
    H298     H        0.51013    0.18767    0.77037    1.000
    H299     H        0.47303    0.13687    0.78447    1.000
    O204     O        0.36163    0.43697    0.75687    1.000
    C387     C        0.43363    0.21547    0.80457    1.000
    H300     H        0.42043    0.22397    0.81717    1.000
    H301     H        0.46873    0.21847    0.80767    1.000
    O205     O        0.36833    0.47167    0.75637    1.000
    C388     C        0.44233    0.25907    0.78747    1.000
    O206     O        0.47403    0.40637    0.83815    1.000
    C389     C        0.49473    0.29957    0.77797    1.000
    H302     H        0.52643    0.29917    0.78187    1.000
    O207     O        0.68563    0.45827    0.83577    1.000
    C390     C        0.49913    0.33487    0.76477    1.000
    O208     O        0.72433    0.52147    0.85777    1.000
    C391     C        0.45943    0.33557    0.75907    1.000
    H303     H        0.46423    0.36157    0.74897    1.000
    O209     O        0.72333    0.53947    0.85557    1.000
    C392     C        0.40163    0.29777    0.76667    1.000
    O210     O        0.53853    0.55577    0.80695    1.000
    C393     C        0.39643    0.26267    0.78157    1.000
    O211     O        0.51833    0.74077    0.81467    1.000
    C394     C        0.55953    0.37927    0.75627    1.000
    O212     O        0.44443    0.71017    0.83787    1.000
    C395     C        0.34073    0.25897    0.80727    1.000
    H304     H        0.35263    0.29607    0.80317    1.000
    H305     H        0.30283    0.24127    0.81137    1.000
    H306     H        0.36263    0.25907    0.81877    1.000
    O213     O        0.55113    0.57117    0.87005    1.000
    C396     C        0.35513    0.30397    0.75847    1.000
    H307     H        0.34413    0.32077    0.76927    1.000
    H308     H        0.36843    0.32907    0.74667    1.000
    O214     O        0.45223    0.43727    0.93837    1.000
    C397     C        0.38683    0.39747    0.82767    1.000
    O215     O        0.43293    0.35947    0.92187    1.000
    C398     C        0.35423    0.39837    0.81167    1.000
    H309     H        0.31753    0.38687    0.81427    1.000
    O216     O        0.39383    0.49057    0.84980    1.000
    C399     C        0.37503    0.41617    0.79157    1.000
    C400     C        0.43173    0.43357    0.78747    1.000
    H310     H        0.44603    0.44597    0.77427    1.000
    C401     C        0.46523    0.43217    0.80286    1.000
    O217     O        0.65773    0.51887    0.89147    1.000
    C402     C        0.44093    0.41147    0.82287    1.000
    O218     O        0.65943    0.54427    0.88837    1.000
    C403     C        0.33753    0.41357    0.77377    1.000
    C404     C        0.47203    0.35517    0.83747    1.000
    H311     H        0.43553    0.32637    0.84067    1.000
    H312     H        0.49723    0.35497    0.84757    1.000
    H313     H        0.48223    0.34957    0.82377    1.000
    O219     O        0.36183    0.60067    0.82287    1.000
    C405     C        0.52453    0.44797    0.79847    1.000
    H314     H        0.52733    0.41497    0.79907    1.000
    H315     H        0.53343    0.46197    0.78427    1.000
    O220     O        0.37613    0.61367    0.81667    1.000
    C406     C        0.56683    0.49017    0.81293    1.000
    O221     O        0.31873    0.50337    0.79347    1.000
    C407     C        0.60413    0.47767    0.82177    1.000
    H316     H        0.60163    0.44407    0.81877    1.000
    O222     O        0.30763    0.48727    0.79997    1.000
    C408     C        0.64633    0.51527    0.83553    1.000
    C409     C        0.64823    0.56477    0.83987    1.000
    H317     H        0.67523    0.58967    0.84877    1.000
    C410     C        0.61193    0.57757    0.83137    1.000
    C411     C        0.57223    0.54237    0.81712    1.000
    C412     C        0.68623    0.49607    0.84347    1.000
    C413     C        0.56243    0.58317    0.78727    1.000
    H318     H        0.59933    0.61247    0.78967    1.000
    H319     H        0.54083    0.59777    0.78157    1.000
    H320     H        0.56293    0.55717    0.77767    1.000
    C414     C        0.61713    0.63287    0.83627    1.000
    H321     H        0.63133    0.65577    0.82387    1.000
    H322     H        0.64453    0.65027    0.84717    1.000
    C415     C        0.56483    0.63337    0.84317    1.000
    C416     C        0.54703    0.66677    0.83427    1.000
    H323     H        0.56683    0.68817    0.82297    1.000
    C417     C        0.50333    0.67087    0.84057    1.000
    C418     C        0.47193    0.63767    0.85537    1.000
    H324     H        0.44003    0.63787    0.85917    1.000
    C419     C        0.48613    0.59967    0.86617    1.000
    C420     C        0.53303    0.60107    0.85957    1.000
    C421     C        0.48873    0.71317    0.82807    1.000
    C422     C        0.58573    0.59917    0.88807    1.000
    H325     H        0.60513    0.63807    0.88567    1.000
    H326     H        0.61163    0.58677    0.89007    1.000
    H327     H        0.56313    0.59087    0.90027    1.000
    C423     C        0.45273    0.56637    0.88407    1.000
    H328     H        0.42003    0.56967    0.88487    1.000
    H329     H        0.47363    0.58217    0.89677    1.000
    C424     C        0.43503    0.50607    0.88363    1.000
    C425     C        0.44413    0.48287    0.90104    1.000
    H330     H        0.46123    0.50547    0.91247    1.000
    C426     C        0.42913    0.42747    0.90267    1.000
    Rb36     Rb       0.19211    0.30903    0.79505    1.000
    C427     C        0.40353    0.39517    0.88526    1.000
    H331     H        0.39373    0.35827    0.88547    1.000
    C428     C        0.39193    0.41597    0.86742    1.000
    C429     C        0.40813    0.46907    0.86707    1.000
    C430     C        0.43983    0.40977    0.92187    1.000
    C431     C        0.33943    0.48657    0.85097    1.000
    H332     H        0.31113    0.44887    0.84967    1.000
    H333     H        0.33613    0.50777    0.83987    1.000
    H334     H        0.33583    0.50067    0.86417    1.000
    C432     C        0.36323    0.37837    0.84857    1.000
    H335     H        0.36173    0.34367    0.85107    1.000
    H336     H        0.32563    0.37107    0.84827    1.000
    Rb37     Rb       0.11386    0.21276    0.14256    1.000
    O223     O        0.46000    0.27350    0.10710    1.000
    C433     C        0.44720    0.42130    0.06864    1.000
    Rb38     Rb       0.20078    0.41206    0.20662    1.000
    O224     O        0.53490    0.31690    0.09320    1.000
    C434     C        0.41590    0.38660    0.08470    1.000
    Rb39     Rb       0.54067    0.45510    0.11973    1.000
    O225     O        0.43000    0.45390    0.05788    1.000
    C435     C        0.43090    0.35440    0.09300    1.000
    H337     H        0.40880    0.33100    0.10360    1.000
    Rb40     Rb       0.43857    0.56334    0.06157    1.000
    O226     O        0.53540    0.61450    0.00050    1.000
    C436     C        0.47990    0.35190    0.08720    1.000
    Rb41     Rb       0.37250    0.22760    0.13378    1.000
    O227     O        0.57240    0.68950    0.02060    1.000
    C437     C        0.51120    0.38860    0.07131    1.000
    H338     H        0.54370    0.39030    0.06700    1.000
    O228     O        0.58570    0.52180    0.08209    1.000
    C438     C        0.49430    0.42330    0.06142    1.000
    O229     O        0.67650    0.57350    0.15760    1.000
    C439     C        0.49390    0.31380    0.09650    1.000
    O230     O        0.59530    0.54150    0.17710    1.000
    C440     C        0.39310    0.42550    0.04070    1.000
    H339     H        0.35620    0.40450    0.04590    1.000
    H340     H        0.39510    0.45180    0.03070    1.000
    H341     H        0.40340    0.40130    0.03420    1.000
    O231     O        0.50840    0.60530    0.09930    1.000
    C441     C        0.53290    0.46330    0.04500    1.000
    H342     H        0.51520    0.45190    0.03150    1.000
    H343     H        0.56580    0.46040    0.04450    1.000
    O232     O        0.29360    0.55650    0.09710    1.000
    C442     C        0.54970    0.52250    0.04820    1.000
    O233     O        0.25590    0.48850    0.07580    1.000
    C443     C        0.54420    0.55100    0.03310    1.000
    H344     H        0.52810    0.53340    0.02070    1.000
    O234     O        0.43620    0.44940    0.12384    1.000
    C444     C        0.56200    0.60820    0.03520    1.000
    C445     C        0.58570    0.63350    0.05430    1.000
    H345     H        0.59770    0.67060    0.05630    1.000
    C446     C        0.59100    0.60310    0.07010    1.000
    C447     C        0.57620    0.54890    0.06750    1.000
    C448     C        0.55510    0.63970    0.01570    1.000
    C449     C        0.63910    0.52830    0.07800    1.000
    H346     H        0.66680    0.56100    0.08470    1.000
    H347     H        0.64040    0.49700    0.08320    1.000
    H348     H        0.64570    0.53140    0.06320    1.000
    O235     O        0.62200    0.43000    0.11320    1.000
    C450     C        0.61980    0.63210    0.09120    1.000
    H349     H        0.62640    0.66940    0.09060    1.000
    H350     H        0.65560    0.63470    0.09140    1.000
    O236     O        0.15900    0.13700    0.29730    1.000
    C451     C        0.59250    0.60810    0.11140    1.000
    C452     C        0.61910    0.59690    0.12560    1.000
    H351     H        0.65410    0.60290    0.12270    1.000
    C453     C        0.59610    0.57670    0.14440    1.000
    C454     C        0.53720    0.56290    0.14470    1.000
    H352     H        0.51950    0.54620    0.15710    1.000
    O237     O        0.39890    0.16630    0.12740    1.000
    C455     C        0.50620    0.56880    0.13200    1.000
    O238     O        0.26660    0.15660    0.15550    1.000
    C456     C        0.53580    0.59650    0.11390    1.000
    O239     O        0.27610    0.14500    0.15720    1.000
    C457     C        0.63010    0.56650    0.16030    1.000
    O240     O        0.27690    0.23080    0.11022    1.000
    C458     C        0.51440    0.65830    0.10410    1.000
    H353     H        0.53830    0.68490    0.09410    1.000
    H354     H        0.47900    0.65580    0.10370    1.000
    H355     H        0.52980    0.66950    0.11780    1.000
    O241     O        0.22970    0.25800    0.09020    1.000
    C459     C        0.45120    0.55150    0.13790    1.000
    H356     H        0.44270    0.52980    0.15050    1.000
    H357     H        0.44820    0.58360    0.14100    1.000
    O242     O        0.19500    0.23000    0.08970    1.000
    C460     C        0.40760    0.51660    0.12080    1.000
    O243     O        0.26030    0.40100    0.17148    1.000
    C461     C        0.36710    0.52850    0.11130    1.000
    H358     H        0.36750    0.56060    0.11520    1.000
    O244     O        0.20840    0.56070    0.16910    1.000
    C462     C        0.33180    0.49760    0.09810    1.000
    O245     O        0.14520    0.53620    0.19110    1.000
    C463     C        0.33110    0.45720    0.09240    1.000
    H359     H        0.30510    0.43600    0.08230    1.000
    O246     O        0.12720    0.51720    0.18890    1.000
    C464     C        0.36890    0.43720    0.10000    1.000
    O247     O        0.11090    0.31610    0.14028    1.000
    C465     C        0.40400    0.46710    0.11490    1.000
    O248     O        0.92590    0.11090    0.14800    1.000
    C466     C        0.28740    0.51360    0.08960    1.000
    O249     O        0.95650    0.06760    0.17120    1.000
    C467     C        0.40770    0.41510    0.14060    1.000
    H360     H        0.37060    0.38990    0.13650    1.000
    H361     H        0.42540    0.39490    0.14470    1.000
    H362     H        0.40760    0.43690    0.15210    1.000
    O250     O        0.09550    0.31330    0.20338    1.000
    C468     C        0.36270    0.38450    0.09180    1.000
    H363     H        0.34590    0.35670    0.10260    1.000
    H364     H        0.33760    0.37270    0.08000    1.000
    O251     O        0.22940    0.34830    0.27170    1.000
    C469     C        0.26920    0.32270    0.16100    1.000
    O252     O        0.30720    0.40680    0.25520    1.000
    C470     C        0.26830    0.28920    0.14500    1.000
    H365     H        0.27980    0.26400    0.14760    1.000
    O253     O        0.17610    0.23660    0.18313    1.000
    C471     C        0.25050    0.29220    0.12490    1.000
    C472     C        0.23310    0.33150    0.12080    1.000
    H366     H        0.22070    0.33340    0.10760    1.000
    C473     C        0.23450    0.36640    0.13619    1.000
    O254     O        0.14780    0.47220    0.22480    1.000
    C474     C        0.25520    0.36280    0.15620    1.000
    O255     O        0.12240    0.44850    0.22170    1.000
    C475     C        0.25310    0.25730    0.10710    1.000
    C476     C        0.31150    0.45020    0.17080    1.000
    H367     H        0.34030    0.44250    0.17400    1.000
    H368     H        0.31170    0.47560    0.18090    1.000
    H369     H        0.31710    0.46600    0.15710    1.000
    O256     O        0.06600    0.09450    0.15620    1.000
    C477     C        0.21870    0.40990    0.13180    1.000
    H370     H        0.25170    0.44570    0.13240    1.000
    H371     H        0.20470    0.40480    0.11760    1.000
    O257     O        0.05300    0.09580    0.15000    1.000
    C478     C        0.17650    0.41000    0.14626    1.000
    O258     O        0.16330    0.14870    0.12680    1.000
    C479     C        0.18900    0.45980    0.15510    1.000
    H372     H        0.22260    0.49090    0.15210    1.000
    O259     O        0.17940    0.15370    0.13330    1.000
    C480     C        0.15140    0.46440    0.16886    1.000
    C481     C        0.10190    0.41680    0.17320    1.000
    H373     H        0.07700    0.41890    0.18210    1.000
    C482     C        0.08910    0.36770    0.16470    1.000
    C483     C        0.12430    0.36320    0.15045    1.000
    C484     C        0.17060    0.52350    0.17680    1.000
    C485     C        0.08350    0.31260    0.12060    1.000
    H374     H        0.05420    0.32020    0.12300    1.000
    H375     H        0.06890    0.27640    0.11490    1.000
    H376     H        0.10950    0.33910    0.11100    1.000
    C486     C        0.03380    0.31760    0.16960    1.000
    H377     H        0.01090    0.30890    0.15720    1.000
    H378     H        0.01640    0.32760    0.18050    1.000
    C487     C        0.03330    0.26480    0.17650    1.000
    C488     C        0.99990    0.21360    0.16760    1.000
    H379     H        0.97850    0.21200    0.15630    1.000
    C489     C        0.99580    0.16580    0.17390    1.000
    C490     C        0.02900    0.16760    0.18870    1.000
    H380     H        0.02880    0.13550    0.19250    1.000
    C491     C        0.06700    0.21980    0.19950    1.000
    C492     C        0.06560    0.26530    0.19290    1.000
    C493     C        0.95350    0.10890    0.16140    1.000
    C494     C        0.06750    0.31990    0.22140    1.000
    H381     H        0.02860    0.30040    0.21900    1.000
    H382     H        0.07990    0.35820    0.22340    1.000
    H383     H        0.07580    0.30560    0.23360    1.000
    C495     C        0.10030    0.21970    0.21740    1.000
    H384     H        0.09700    0.18370    0.21820    1.000
    H385     H        0.08450    0.22480    0.23010    1.000
    C496     C        0.16060    0.26230    0.21696    1.000
    C497     C        0.18380    0.29460    0.23437    1.000
    H386     H        0.16120    0.28910    0.24580    1.000
    C498     C        0.23920    0.33500    0.23600    1.000
    Rb42     Rb       0.35764    0.21642    0.12838    1.000
    C499     C        0.27150    0.34170    0.21859    1.000
    H387     H        0.30840    0.36880    0.21880    1.000
    C500     C        0.25070    0.30930    0.20075    1.000
    C501     C        0.19760    0.27240    0.20040    1.000
    C502     C        0.25690    0.36340    0.25520    1.000
    C503     C        0.18010    0.18620    0.18430    1.000
    H388     H        0.21780    0.19560    0.18300    1.000
    H389     H        0.15890    0.16170    0.17320    1.000
    H390     H        0.16600    0.16850    0.19750    1.000
    C504     C        0.28830    0.31820    0.18190    1.000
    H391     H        0.32300    0.35140    0.18440    1.000
    H392     H        0.29560    0.28790    0.18160    1.000
    Rb43     Rb       0.78053    0.54609    0.47589    1.000
    O260     O        0.12667    0.60683    0.44043    1.000
    C505     C        0.11387    0.75463    0.40197    1.000
    Rb44     Rb       0.86745    0.74539    0.53995    1.000
    O261     O        0.20157    0.65023    0.42653    1.000
    C506     C        0.08257    0.71993    0.41803    1.000
    Rb45     Rb       0.20734    0.78843    0.45306    1.000
    O262     O        0.09667    0.78723    0.39121    1.000
    C507     C        0.09757    0.68773    0.42633    1.000
    H393     H        0.07547    0.66433    0.43693    1.000
    Rb46     Rb       0.10524    0.89667    0.39490    1.000
    O263     O        0.20207    0.94783    0.33383    1.000
    C508     C        0.14657    0.68523    0.42053    1.000
    Rb47     Rb       0.03917    0.56093    0.46711    1.000
    O264     O        0.23907    0.02283    0.35393    1.000
    C509     C        0.17787    0.72193    0.40464    1.000
    H394     H        0.21037    0.72363    0.40033    1.000
    O265     O        0.25237    0.85513    0.41542    1.000
    C510     C        0.16097    0.75663    0.39475    1.000
    O266     O        0.34317    0.90683    0.49093    1.000
    C511     C        0.16057    0.64713    0.42983    1.000
    O267     O        0.26197    0.87483    0.51043    1.000
    C512     C        0.05977    0.75883    0.37403    1.000
    H395     H        0.02287    0.73783    0.37923    1.000
    H396     H        0.06177    0.78513    0.36403    1.000
    H397     H        0.07007    0.73463    0.36753    1.000
    O268     O        0.17507    0.93863    0.43263    1.000
    C513     C        0.19957    0.79663    0.37833    1.000
    H398     H        0.18187    0.78523    0.36483    1.000
    H399     H        0.23247    0.79373    0.37783    1.000
    O269     O        0.96027    0.88983    0.43043    1.000
    C514     C        0.21637    0.85583    0.38153    1.000
    O270     O        0.92257    0.82183    0.40913    1.000
    C515     C        0.21087    0.88433    0.36643    1.000
    H400     H        0.19477    0.86673    0.35403    1.000
    O271     O        0.10287    0.78273    0.45717    1.000
    C516     C        0.22867    0.94153    0.36853    1.000
    C517     C        0.25237    0.96683    0.38763    1.000
    H401     H        0.26437    0.00393    0.38963    1.000
    C518     C        0.25767    0.93643    0.40343    1.000
    C519     C        0.24287    0.88223    0.40083    1.000
    C520     C        0.22177    0.97303    0.34903    1.000
    C521     C        0.30577    0.86163    0.41133    1.000
    H402     H        0.33347    0.89433    0.41803    1.000
    H403     H        0.30707    0.83033    0.41653    1.000
    H404     H        0.31237    0.86473    0.39653    1.000
    O272     O        0.28867    0.76333    0.44653    1.000
    C522     C        0.28647    0.96543    0.42453    1.000
    H405     H        0.29307    0.00273    0.42393    1.000
    H406     H        0.32227    0.96803    0.42473    1.000
    O273     O        0.82567    0.47033    0.63063    1.000
    C523     C        0.25917    0.94143    0.44473    1.000
    C524     C        0.28577    0.93023    0.45893    1.000
    H407     H        0.32077    0.93623    0.45603    1.000
    C525     C        0.26277    0.91003    0.47773    1.000
    C526     C        0.20387    0.89623    0.47803    1.000
    H408     H        0.18617    0.87953    0.49043    1.000
    O274     O        0.06557    0.49963    0.46073    1.000
    C527     C        0.17287    0.90213    0.46533    1.000
    O275     O        0.93327    0.48993    0.48883    1.000
    C528     C        0.20247    0.92983    0.44723    1.000
    O276     O        0.94277    0.47833    0.49053    1.000
    C529     C        0.29677    0.89983    0.49363    1.000
    O277     O        0.94357    0.56413    0.44355    1.000
    C530     C        0.18107    0.99163    0.43743    1.000
    H409     H        0.20497    0.01823    0.42743    1.000
    H410     H        0.14567    0.98913    0.43703    1.000
    H411     H        0.19647    0.00283    0.45113    1.000
    O278     O        0.89637    0.59133    0.42353    1.000
    C531     C        0.11787    0.88483    0.47123    1.000
    H412     H        0.10937    0.86313    0.48383    1.000
    H413     H        0.11487    0.91693    0.47433    1.000
    O279     O        0.86167    0.56333    0.42303    1.000
    C532     C        0.07427    0.84993    0.45413    1.000
    O280     O        0.92697    0.73433    0.50481    1.000
    C533     C        0.03377    0.86183    0.44463    1.000
    H414     H        0.03417    0.89393    0.44853    1.000
    O281     O        0.87507    0.89403    0.50243    1.000
    C534     C        0.99847    0.83093    0.43143    1.000
    O282     O        0.81187    0.86953    0.52443    1.000
    C535     C        0.99777    0.79053    0.42573    1.000
    H415     H        0.97177    0.76933    0.41563    1.000
    O283     O        0.79387    0.85053    0.52223    1.000
    C536     C        0.03557    0.77053    0.43333    1.000
    O284     O        0.77757    0.64943    0.47361    1.000
    C537     C        0.07067    0.80043    0.44823    1.000
    O285     O        0.59257    0.44423    0.48133    1.000
    C538     C        0.95407    0.84693    0.42293    1.000
    O286     O        0.62317    0.40093    0.50453    1.000
    C539     C        0.07437    0.74843    0.47393    1.000
    H416     H        0.03727    0.72323    0.46983    1.000
    H417     H        0.09207    0.72823    0.47803    1.000
    H418     H        0.07427    0.77023    0.48543    1.000
    O287     O        0.76217    0.64663    0.53671    1.000
    C540     C        0.02937    0.71783    0.42513    1.000
    H419     H        0.01257    0.69003    0.43593    1.000
    H420     H        0.00427    0.70603    0.41333    1.000
    O288     O        0.89607    0.68163    0.60503    1.000
    C541     C        0.93587    0.65603    0.49433    1.000
    O289     O        0.97387    0.74013    0.58853    1.000
    C542     C        0.93497    0.62253    0.47833    1.000
    H421     H        0.94647    0.59733    0.48093    1.000
    O290     O        0.84277    0.56993    0.51646    1.000
    C543     C        0.91717    0.62553    0.45823    1.000
    C544     C        0.89977    0.66483    0.45413    1.000
    H422     H        0.88737    0.66673    0.44093    1.000
    C545     C        0.90117    0.69973    0.46952    1.000
    O291     O        0.81447    0.80553    0.55813    1.000
    C546     C        0.92187    0.69613    0.48953    1.000
    O292     O        0.78907    0.78183    0.55503    1.000
    C547     C        0.91977    0.59063    0.44043    1.000
    C548     C        0.97817    0.78353    0.50413    1.000
    H423     H        0.00697    0.77583    0.50733    1.000
    H424     H        0.97837    0.80893    0.51423    1.000
    H425     H        0.98377    0.79933    0.49043    1.000
    O293     O        0.73267    0.42783    0.48953    1.000
    C549     C        0.88537    0.74323    0.46513    1.000
    H426     H        0.91837    0.77903    0.46573    1.000
    H427     H        0.87137    0.73813    0.45093    1.000
    O294     O        0.71967    0.42913    0.48333    1.000
    C550     C        0.84317    0.74333    0.47959    1.000
    O295     O        0.82997    0.48203    0.46013    1.000
    C551     C        0.85567    0.79313    0.48843    1.000
    H428     H        0.88927    0.82423    0.48543    1.000
    O296     O        0.84607    0.48703    0.46663    1.000
    C552     C        0.81807    0.79773    0.50219    1.000
    C553     C        0.76857    0.75013    0.50653    1.000
    H429     H        0.74367    0.75223    0.51543    1.000
    C554     C        0.75577    0.70103    0.49803    1.000
    C555     C        0.79097    0.69653    0.48378    1.000
    C556     C        0.83727    0.85683    0.51013    1.000
    C557     C        0.75017    0.64593    0.45393    1.000
    H430     H        0.72087    0.65353    0.45633    1.000
    H431     H        0.73557    0.60973    0.44823    1.000
    H432     H        0.77617    0.67243    0.44433    1.000
    C558     C        0.70047    0.65093    0.50293    1.000
    H433     H        0.67757    0.64223    0.49053    1.000
    H434     H        0.68307    0.66093    0.51383    1.000
    C559     C        0.69997    0.59813    0.50983    1.000
    C560     C        0.66657    0.54693    0.50093    1.000
    H435     H        0.64517    0.54533    0.48963    1.000
    C561     C        0.66247    0.49913    0.50723    1.000
    C562     C        0.69567    0.50093    0.52203    1.000
    H436     H        0.69547    0.46883    0.52583    1.000
    C563     C        0.73367    0.55313    0.53283    1.000
    C564     C        0.73227    0.59863    0.52623    1.000
    C565     C        0.62017    0.44223    0.49473    1.000
    C566     C        0.73417    0.65323    0.55473    1.000
    H437     H        0.69527    0.63373    0.55233    1.000
    H438     H        0.74657    0.69153    0.55673    1.000
    H439     H        0.74247    0.63893    0.56693    1.000
    C567     C        0.76697    0.55303    0.55073    1.000
    H440     H        0.76367    0.51703    0.55153    1.000
    H441     H        0.75117    0.55813    0.56343    1.000
    C568     C        0.82727    0.59563    0.55029    1.000
    C569     C        0.85047    0.62793    0.56770    1.000
    H442     H        0.82787    0.62243    0.57913    1.000
    C570     C        0.90587    0.66833    0.56933    1.000
    Rb48     Rb       0.02431    0.54975    0.46171    1.000
    C571     C        0.93817    0.67503    0.55192    1.000
    H443     H        0.97507    0.70213    0.55213    1.000
    C572     C        0.91737    0.64263    0.53408    1.000
    C573     C        0.86427    0.60573    0.53373    1.000
    C574     C        0.92357    0.69673    0.58853    1.000
    C575     C        0.84677    0.51953    0.51763    1.000
    H444     H        0.88447    0.52893    0.51633    1.000
    H445     H        0.82557    0.49503    0.50653    1.000
    H446     H        0.83267    0.50183    0.53083    1.000
    C576     C        0.95497    0.65153    0.51523    1.000
    H447     H        0.98967    0.68473    0.51773    1.000
    H448     H        0.96227    0.62123    0.51493    1.000
    Rb49     Rb       0.44719    0.87943    0.80923    1.000
    O297     O        0.79333    0.94017    0.77377    1.000
    C577     C        0.78053    0.08797    0.73531    1.000
    Rb50     Rb       0.53411    0.07873    0.87329    1.000
    O298     O        0.86823    0.98357    0.75987    1.000
    C578     C        0.74923    0.05327    0.75137    1.000
    Rb51     Rb       0.87400    0.12177    0.78640    1.000
    O299     O        0.76333    0.12057    0.72455    1.000
    C579     C        0.76423    0.02107    0.75967    1.000
    H449     H        0.74213    0.99767    0.77027    1.000
    Rb52     Rb       0.77190    0.23001    0.72824    1.000
    O300     O        0.86873    0.28117    0.66717    1.000
    C580     C        0.81323    0.01857    0.75387    1.000
    Rb53     Rb       0.70583    0.89427    0.80045    1.000
    O301     O        0.90573    0.35617    0.68727    1.000
    C581     C        0.84453    0.05527    0.73798    1.000
    H450     H        0.87703    0.05697    0.73367    1.000
    O302     O        0.91903    0.18847    0.74876    1.000
    C582     C        0.82763    0.08997    0.72809    1.000
    O303     O        0.00983    0.24017    0.82427    1.000
    C583     C        0.82723    0.98047    0.76317    1.000
    O304     O        0.92863    0.20817    0.84377    1.000
    C584     C        0.72643    0.09217    0.70737    1.000
    H451     H        0.68953    0.07117    0.71257    1.000
    H452     H        0.72843    0.11847    0.69737    1.000
    H453     H        0.73673    0.06797    0.70087    1.000
    O305     O        0.84173    0.27197    0.76597    1.000
    C585     C        0.86623    0.12997    0.71167    1.000
    H454     H        0.84853    0.11857    0.69817    1.000
    H455     H        0.89913    0.12707    0.71117    1.000
    O306     O        0.62693    0.22317    0.76377    1.000
    C586     C        0.88303    0.18917    0.71487    1.000
    O307     O        0.58923    0.15517    0.74247    1.000
    C587     C        0.87753    0.21767    0.69977    1.000
    H456     H        0.86143    0.20007    0.68737    1.000
    O308     O        0.76953    0.11607    0.79051    1.000
    C588     C        0.89533    0.27487    0.70187    1.000
    C589     C        0.91903    0.30017    0.72097    1.000
    H457     H        0.93103    0.33727    0.72297    1.000
    C590     C        0.92433    0.26977    0.73677    1.000
    C591     C        0.90953    0.21557    0.73417    1.000
    C592     C        0.88843    0.30637    0.68237    1.000
    C593     C        0.97243    0.19497    0.74467    1.000
    H458     H        0.00013    0.22767    0.75137    1.000
    H459     H        0.97373    0.16367    0.74987    1.000
    H460     H        0.97903    0.19807    0.72987    1.000
    O309     O        0.95533    0.09667    0.77987    1.000
    C594     C        0.95313    0.29877    0.75787    1.000
    H461     H        0.95973    0.33607    0.75727    1.000
    H462     H        0.98893    0.30137    0.75807    1.000
    O310     O        0.49233    0.80367    0.96397    1.000
    C595     C        0.92583    0.27477    0.77807    1.000
    C596     C        0.95243    0.26357    0.79227    1.000
    H463     H        0.98743    0.26957    0.78937    1.000
    C597     C        0.92943    0.24337    0.81107    1.000
    C598     C        0.87053    0.22957    0.81137    1.000
    H464     H        0.85283    0.21287    0.82377    1.000
    O311     O        0.73223    0.83297    0.79407    1.000
    C599     C        0.83953    0.23547    0.79867    1.000
    O312     O        0.59993    0.82327    0.82217    1.000
    C600     C        0.86913    0.26317    0.78057    1.000
    O313     O        0.60943    0.81167    0.82387    1.000
    C601     C        0.96343    0.23317    0.82697    1.000
    O314     O        0.61023    0.89747    0.77689    1.000
    C602     C        0.84773    0.32497    0.77077    1.000
    H465     H        0.87163    0.35157    0.76077    1.000
    H466     H        0.81233    0.32247    0.77037    1.000
    H467     H        0.86313    0.33617    0.78447    1.000
    O315     O        0.56303    0.92467    0.75687    1.000
    C603     C        0.78453    0.21817    0.80457    1.000
    H468     H        0.77603    0.19647    0.81717    1.000
    H469     H        0.78153    0.25027    0.80767    1.000
    O316     O        0.52833    0.89667    0.75637    1.000
    C604     C        0.74093    0.18327    0.78747    1.000
    O317     O        0.59363    0.06767    0.83815    1.000
    C605     C        0.70043    0.19517    0.77797    1.000
    H470     H        0.70083    0.22727    0.78187    1.000
    O318     O        0.54173    0.22737    0.83577    1.000
    C606     C        0.66513    0.16427    0.76477    1.000
    O319     O        0.47853    0.20287    0.85777    1.000
    C607     C        0.66443    0.12387    0.75907    1.000
    H471     H        0.63843    0.10267    0.74897    1.000
    O320     O        0.46053    0.18387    0.85557    1.000
    C608     C        0.70223    0.10387    0.76667    1.000
    O321     O        0.44423    0.98277    0.80695    1.000
    C609     C        0.73733    0.13377    0.78157    1.000
    O322     O        0.25923    0.77757    0.81467    1.000
    C610     C        0.62073    0.18027    0.75627    1.000
    O323     O        0.28983    0.73427    0.83787    1.000
    C611     C        0.74103    0.08177    0.80727    1.000
    H472     H        0.70393    0.05657    0.80317    1.000
    H473     H        0.75873    0.06157    0.81137    1.000
    H474     H        0.74093    0.10357    0.81877    1.000
    O324     O        0.42883    0.97997    0.87005    1.000
    C612     C        0.69603    0.05117    0.75847    1.000
    H475     H        0.67923    0.02337    0.76927    1.000
    H476     H        0.67093    0.03937    0.74667    1.000
    O325     O        0.56273    0.01497    0.93837    1.000
    C613     C        0.60253    0.98937    0.82767    1.000
    O326     O        0.64053    0.07347    0.92187    1.000
    C614     C        0.60163    0.95587    0.81167    1.000
    H477     H        0.61313    0.93067    0.81427    1.000
    O327     O        0.50943    0.90327    0.84980    1.000
    C615     C        0.58383    0.95887    0.79157    1.000
    C616     C        0.56643    0.99817    0.78747    1.000
    H478     H        0.55403    0.00007    0.77427    1.000
    C617     C        0.56783    0.03307    0.80286    1.000
    O328     O        0.48113    0.13887    0.89147    1.000
    C618     C        0.58853    0.02947    0.82287    1.000
    O329     O        0.45573    0.11517    0.88837    1.000
    C619     C        0.58643    0.92397    0.77377    1.000
    C620     C        0.64483    0.11687    0.83747    1.000
    H479     H        0.67363    0.10917    0.84067    1.000
    H480     H        0.64503    0.14227    0.84757    1.000
    H481     H        0.65043    0.13267    0.82377    1.000
    O330     O        0.39933    0.76117    0.82287    1.000
    C621     C        0.55203    0.07657    0.79847    1.000
    H482     H        0.58503    0.11237    0.79907    1.000
    H483     H        0.53803    0.07147    0.78427    1.000
    O331     O        0.38633    0.76247    0.81667    1.000
    C622     C        0.50983    0.07667    0.81293    1.000
    O332     O        0.49663    0.81537    0.79347    1.000
    C623     C        0.52233    0.12647    0.82177    1.000
    H484     H        0.55593    0.15757    0.81877    1.000
    O333     O        0.51273    0.82037    0.79997    1.000
    C624     C        0.48473    0.13107    0.83553    1.000
    C625     C        0.43523    0.08347    0.83987    1.000
    H485     H        0.41033    0.08557    0.84877    1.000
    C626     C        0.42243    0.03437    0.83137    1.000
    C627     C        0.45763    0.02987    0.81712    1.000
    C628     C        0.50393    0.19017    0.84347    1.000
    C629     C        0.41683    0.97927    0.78727    1.000
    H486     H        0.38753    0.98687    0.78967    1.000
    H487     H        0.40223    0.94307    0.78157    1.000
    H488     H        0.44283    0.00577    0.77767    1.000
    C630     C        0.36713    0.98427    0.83627    1.000
    H489     H        0.34423    0.97557    0.82387    1.000
    H490     H        0.34973    0.99427    0.84717    1.000
    C631     C        0.36663    0.93147    0.84317    1.000
    C632     C        0.33323    0.88027    0.83427    1.000
    H491     H        0.31183    0.87867    0.82297    1.000
    C633     C        0.32913    0.83247    0.84057    1.000
    C634     C        0.36233    0.83427    0.85537    1.000
    H492     H        0.36213    0.80217    0.85917    1.000
    C635     C        0.40033    0.88647    0.86617    1.000
    C636     C        0.39893    0.93197    0.85957    1.000
    C637     C        0.28683    0.77557    0.82807    1.000
    C638     C        0.40083    0.98657    0.88807    1.000
    H493     H        0.36193    0.96707    0.88567    1.000
    H494     H        0.41323    0.02487    0.89007    1.000
    H495     H        0.40913    0.97227    0.90027    1.000
    C639     C        0.43363    0.88637    0.88407    1.000
    H496     H        0.43033    0.85037    0.88487    1.000
    H497     H        0.41783    0.89147    0.89677    1.000
    C640     C        0.49393    0.92897    0.88363    1.000
    C641     C        0.51713    0.96127    0.90104    1.000
    H498     H        0.49453    0.95577    0.91247    1.000
    C642     C        0.57253    0.00167    0.90267    1.000
    Rb54     Rb       0.69097    0.88309    0.79505    1.000
    C643     C        0.60483    0.00837    0.88526    1.000
    H499     H        0.64173    0.03547    0.88547    1.000
    C644     C        0.58403    0.97597    0.86742    1.000
    C645     C        0.53093    0.93907    0.86707    1.000
    C646     C        0.59023    0.03007    0.92187    1.000
    C647     C        0.51343    0.85287    0.85097    1.000
    H500     H        0.55113    0.86227    0.84967    1.000
    H501     H        0.49223    0.82837    0.83987    1.000
    H502     H        0.49933    0.83517    0.86417    1.000
    C648     C        0.62163    0.98487    0.84857    1.000
    H503     H        0.65633    0.01807    0.85107    1.000
    H504     H        0.62893    0.95457    0.84827    1.000
    Rb55     Rb       0.09890    0.21276    0.64256    1.000
    O334     O        0.81350    0.27350    0.60710    1.000
    C649     C        0.97410    0.42130    0.56864    1.000
    Rb56     Rb       0.21128    0.41206    0.70662    1.000
    O335     O        0.78200    0.31690    0.59320    1.000
    C650     C        0.97070    0.38660    0.58470    1.000
    Rb57     Rb       0.91443    0.45510    0.61973    1.000
    O336     O        0.02390    0.45390    0.55788    1.000
    C651     C        0.92350    0.35440    0.59300    1.000
    H505     H        0.92220    0.33100    0.60360    1.000
    Rb58     Rb       0.12477    0.56334    0.56157    1.000
    O337     O        0.07910    0.61450    0.50050    1.000
    C652     C        0.87200    0.35190    0.58720    1.000
    Rb59     Rb       0.85510    0.22760    0.63378    1.000
    O338     O        0.11710    0.68950    0.52060    1.000
    C653     C        0.87740    0.38860    0.57131    1.000
    H506     H        0.84660    0.39030    0.56700    1.000
    O339     O        0.93610    0.52180    0.58209    1.000
    C654     C        0.92900    0.42330    0.56142    1.000
    O340     O        0.89700    0.57350    0.65760    1.000
    C655     C        0.81990    0.31380    0.59650    1.000
    O341     O        0.94620    0.54150    0.67710    1.000
    C656     C        0.03240    0.42550    0.54070    1.000
    H507     H        0.04830    0.40450    0.54590    1.000
    H508     H        0.05670    0.45180    0.53070    1.000
    H509     H        0.99790    0.40130    0.53420    1.000
    O342     O        0.09690    0.60530    0.59930    1.000
    C657     C        0.93040    0.46330    0.54500    1.000
    H510     H        0.93670    0.45190    0.53150    1.000
    H511     H        0.89460    0.46040    0.54450    1.000
    O343     O        0.26290    0.55650    0.59710    1.000
    C658     C        0.97280    0.52250    0.54820    1.000
    O344     O        0.23260    0.48850    0.57580    1.000
    C659     C        0.00680    0.55100    0.53310    1.000
    H512     H        0.00530    0.53340    0.52070    1.000
    O345     O        0.01320    0.44940    0.62384    1.000
    C660     C        0.04620    0.60820    0.53520    1.000
    C661     C        0.04780    0.63350    0.55430    1.000
    H513     H        0.07290    0.67060    0.55630    1.000
    C662     C        0.01210    0.60310    0.57010    1.000
    C663     C        0.97270    0.54890    0.56750    1.000
    C664     C        0.08460    0.63970    0.51570    1.000
    C665     C        0.88920    0.52830    0.57800    1.000
    H514     H        0.89420    0.56100    0.58470    1.000
    H515     H        0.85660    0.49700    0.58320    1.000
    H516     H        0.88570    0.53140    0.56320    1.000
    O346     O        0.80800    0.43000    0.61320    1.000
    C666     C        0.01230    0.63210    0.59120    1.000
    H517     H        0.04300    0.66940    0.59060    1.000
    H518     H        0.97910    0.63470    0.59140    1.000
    O347     O        0.97800    0.13700    0.79730    1.000
    C667     C        0.01560    0.60810    0.61140    1.000
    C668     C        0.97780    0.59690    0.62560    1.000
    H519     H        0.94880    0.60290    0.62270    1.000
    C669     C        0.98060    0.57670    0.64440    1.000
    C670     C        0.02570    0.56290    0.64470    1.000
    H520     H        0.02670    0.54620    0.65710    1.000
    O348     O        0.76740    0.16630    0.62740    1.000
    C671     C        0.06260    0.56880    0.63200    1.000
    O349     O        0.89000    0.15660    0.65550    1.000
    C672     C        0.06070    0.59650    0.61390    1.000
    O350     O        0.86890    0.14500    0.65720    1.000
    C673     C        0.93640    0.56650    0.66030    1.000
    O351     O        0.95390    0.23080    0.61022    1.000
    C674     C        0.14390    0.65830    0.60410    1.000
    H521     H        0.14660    0.68490    0.59410    1.000
    H522     H        0.17680    0.65580    0.60370    1.000
    H523     H        0.13970    0.66950    0.61780    1.000
    O352     O        0.02830    0.25800    0.59020    1.000
    C675     C        0.10030    0.55150    0.63790    1.000
    H524     H        0.08710    0.52980    0.65050    1.000
    H525     H        0.13540    0.58360    0.64100    1.000
    O353     O        0.03500    0.23000    0.58970    1.000
    C676     C        0.10900    0.51660    0.62080    1.000
    O354     O        0.14070    0.40100    0.67148    1.000
    C677     C        0.16140    0.52850    0.61130    1.000
    H526     H        0.19310    0.56060    0.61520    1.000
    O355     O        0.35230    0.56070    0.66910    1.000
    C678     C        0.16580    0.49760    0.59810    1.000
    O356     O        0.39100    0.53620    0.69110    1.000
    C679     C        0.12610    0.45720    0.59240    1.000
    H527     H        0.13090    0.43600    0.58230    1.000
    O357     O        0.39000    0.51720    0.68890    1.000
    C680     C        0.06830    0.43720    0.60000    1.000
    O358     O        0.20520    0.31610    0.64028    1.000
    C681     C        0.06310    0.46710    0.61490    1.000
    O359     O        0.18500    0.11090    0.64800    1.000
    C682     C        0.22620    0.51360    0.58960    1.000
    O360     O        0.11110    0.06760    0.67120    1.000
    C683     C        0.00740    0.41510    0.64060    1.000
    H528     H        0.01930    0.38990    0.63650    1.000
    H529     H        0.96950    0.39490    0.64470    1.000
    H530     H        0.02930    0.43690    0.65210    1.000
    O361     O        0.21780    0.31330    0.70338    1.000
    C684     C        0.02180    0.38450    0.59180    1.000
    H531     H        0.01080    0.35670    0.60260    1.000
    H532     H        0.03510    0.37270    0.58000    1.000
    O362     O        0.11890    0.34830    0.77170    1.000
    C685     C        0.05350    0.32270    0.66100    1.000
    O363     O        0.09960    0.40680    0.75520    1.000
    C686     C        0.02090    0.28920    0.64500    1.000
    H533     H        0.98420    0.26400    0.64760    1.000
    O364     O        0.06050    0.23660    0.68313    1.000
    C687     C        0.04170    0.29220    0.62490    1.000
    C688     C        0.09840    0.33150    0.62080    1.000
    H534     H        0.11270    0.33340    0.60760    1.000
    C689     C        0.13190    0.36640    0.63619    1.000
    O365     O        0.32440    0.47220    0.72480    1.000
    C690     C        0.10760    0.36280    0.65620    1.000
    O366     O        0.32610    0.44850    0.72170    1.000
    C691     C        0.00420    0.25730    0.60710    1.000
    C692     C        0.13870    0.45020    0.67080    1.000
    H535     H        0.10220    0.44250    0.67400    1.000
    H536     H        0.16390    0.47560    0.68090    1.000
    H537     H        0.14890    0.46600    0.65710    1.000
    O367     O        0.02850    0.09450    0.65620    1.000
    C693     C        0.19120    0.40990    0.63180    1.000
    H538     H        0.19400    0.44570    0.63240    1.000
    H539     H        0.20010    0.40480    0.61760    1.000
    O368     O        0.04280    0.09580    0.65000    1.000
    C694     C        0.23350    0.41000    0.64626    1.000
    O369     O        0.98540    0.14870    0.62680    1.000
    C695     C        0.27080    0.45980    0.65510    1.000
    H540     H        0.26830    0.49090    0.65210    1.000
    O370     O        0.97430    0.15370    0.63330    1.000
    C696     C        0.31300    0.46440    0.66886    1.000
    C697     C        0.31490    0.41680    0.67320    1.000
    H541     H        0.34190    0.41890    0.68210    1.000
    C698     C        0.27860    0.36770    0.66470    1.000
    C699     C        0.23890    0.36320    0.65045    1.000
    C700     C        0.35290    0.52350    0.67680    1.000
    C701     C        0.22910    0.31260    0.62060    1.000
    H542     H        0.26600    0.32020    0.62300    1.000
    H543     H        0.20750    0.27640    0.61490    1.000
    H544     H        0.22960    0.33910    0.61100    1.000
    C702     C        0.28380    0.31760    0.66960    1.000
    H545     H        0.29800    0.30890    0.65720    1.000
    H546     H        0.31120    0.32760    0.68050    1.000
    C703     C        0.23150    0.26480    0.67650    1.000
    C704     C        0.21370    0.21360    0.66760    1.000
    H547     H        0.23350    0.21200    0.65630    1.000
    C705     C        0.17000    0.16580    0.67390    1.000
    C706     C        0.13860    0.16760    0.68870    1.000
    H548     H        0.10670    0.13550    0.69250    1.000
    C707     C        0.15280    0.21980    0.69950    1.000
    C708     C        0.19970    0.26530    0.69290    1.000
    C709     C        0.15540    0.10890    0.66140    1.000
    C710     C        0.25240    0.31990    0.72140    1.000
    H549     H        0.27180    0.30040    0.71900    1.000
    H550     H        0.27830    0.35820    0.72340    1.000
    H551     H        0.22980    0.30560    0.73360    1.000
    C711     C        0.11940    0.21970    0.71740    1.000
    H552     H        0.08670    0.18370    0.71820    1.000
    H553     H        0.14030    0.22480    0.73010    1.000
    C712     C        0.10170    0.26230    0.71696    1.000
    C713     C        0.11080    0.29460    0.73437    1.000
    H554     H        0.12790    0.28910    0.74580    1.000
    C714     C        0.09580    0.33500    0.73600    1.000
    Rb60     Rb       0.85878    0.21642    0.62838    1.000
    C715     C        0.07020    0.34170    0.71859    1.000
    H555     H        0.06040    0.36880    0.71880    1.000
    C716     C        0.05860    0.30930    0.70075    1.000
    C717     C        0.07480    0.27240    0.70040    1.000
    C718     C        0.10650    0.36340    0.75520    1.000
    C719     C        0.00610    0.18620    0.68430    1.000
    H556     H        0.97780    0.19560    0.68300    1.000
    H557     H        0.00280    0.16170    0.67320    1.000
    H558     H        0.00250    0.16850    0.69750    1.000
    C720     C        0.02990    0.31820    0.68190    1.000
    H559     H        0.02840    0.35140    0.68440    1.000
    H560     H        0.99230    0.28790    0.68160    1.000
    Rb61     Rb       0.76557    0.54609    0.97589    1.000
    O371     O        0.48017    0.60683    0.94043    1.000
    C721     C        0.64077    0.75463    0.90197    1.000
    Rb62     Rb       0.87795    0.74539    0.03995    1.000
    O372     O        0.44867    0.65023    0.92653    1.000
    C722     C        0.63737    0.71993    0.91803    1.000
    Rb63     Rb       0.58110    0.78843    0.95306    1.000
    O373     O        0.69057    0.78723    0.89121    1.000
    C723     C        0.59017    0.68773    0.92633    1.000
    H561     H        0.58887    0.66433    0.93693    1.000
    Rb64     Rb       0.79144    0.89667    0.89490    1.000
    O374     O        0.74577    0.94783    0.83383    1.000
    C724     C        0.53867    0.68523    0.92053    1.000
    Rb65     Rb       0.52177    0.56093    0.96711    1.000
    O375     O        0.78377    0.02283    0.85393    1.000
    C725     C        0.54407    0.72193    0.90464    1.000
    H562     H        0.51327    0.72363    0.90033    1.000
    O376     O        0.60277    0.85513    0.91542    1.000
    C726     C        0.59567    0.75663    0.89475    1.000
    O377     O        0.56367    0.90683    0.99093    1.000
    C727     C        0.48657    0.64713    0.92983    1.000
    O378     O        0.61287    0.87483    0.01043    1.000
    C728     C        0.69907    0.75883    0.87403    1.000
    H563     H        0.71497    0.73783    0.87923    1.000
    H564     H        0.72337    0.78513    0.86403    1.000
    H565     H        0.66457    0.73463    0.86753    1.000
    O379     O        0.76357    0.93863    0.93263    1.000
    C729     C        0.59707    0.79663    0.87833    1.000
    H566     H        0.60337    0.78523    0.86483    1.000
    H567     H        0.56127    0.79373    0.87783    1.000
    O380     O        0.92957    0.88983    0.93043    1.000
    C730     C        0.63947    0.85583    0.88153    1.000
    O381     O        0.89927    0.82183    0.90913    1.000
    C731     C        0.67347    0.88433    0.86643    1.000
    H568     H        0.67197    0.86673    0.85403    1.000
    O382     O        0.67987    0.78273    0.95717    1.000
    C732     C        0.71287    0.94153    0.86853    1.000
    C733     C        0.71447    0.96683    0.88763    1.000
    H569     H        0.73957    0.00393    0.88963    1.000
    C734     C        0.67877    0.93643    0.90343    1.000
    C735     C        0.63937    0.88223    0.90083    1.000
    C736     C        0.75127    0.97303    0.84903    1.000
    C737     C        0.55587    0.86163    0.91133    1.000
    H570     H        0.56087    0.89433    0.91803    1.000
    H571     H        0.52327    0.83033    0.91653    1.000
    H572     H        0.55237    0.86473    0.89653    1.000
    O383     O        0.47467    0.76333    0.94653    1.000
    C738     C        0.67897    0.96543    0.92453    1.000
    H573     H        0.70967    0.00273    0.92393    1.000
    H574     H        0.64577    0.96803    0.92473    1.000
    O384     O        0.64467    0.47033    0.13063    1.000
    C739     C        0.68227    0.94143    0.94473    1.000
    C740     C        0.64447    0.93023    0.95893    1.000
    H575     H        0.61547    0.93623    0.95603    1.000
    C741     C        0.64727    0.91003    0.97773    1.000
    C742     C        0.69237    0.89623    0.97803    1.000
    H576     H        0.69337    0.87953    0.99043    1.000
    O385     O        0.43407    0.49963    0.96073    1.000
    C743     C        0.72927    0.90213    0.96533    1.000
    O386     O        0.55667    0.48993    0.98883    1.000
    C744     C        0.72737    0.92983    0.94723    1.000
    O387     O        0.53557    0.47833    0.99053    1.000
    C745     C        0.60307    0.89983    0.99363    1.000
    O388     O        0.62057    0.56413    0.94355    1.000
    C746     C        0.81057    0.99163    0.93743    1.000
    H577     H        0.81327    0.01823    0.92743    1.000
    H578     H        0.84347    0.98913    0.93703    1.000
    H579     H        0.80637    0.00283    0.95113    1.000
    O389     O        0.69497    0.59133    0.92353    1.000
    C747     C        0.76697    0.88483    0.97123    1.000
    H580     H        0.75377    0.86313    0.98383    1.000
    H581     H        0.80207    0.91693    0.97433    1.000
    O390     O        0.70167    0.56333    0.92303    1.000
    C748     C        0.77567    0.84993    0.95413    1.000
    O391     O        0.80737    0.73433    0.00481    1.000
    C749     C        0.82807    0.86183    0.94463    1.000
    H582     H        0.85977    0.89393    0.94853    1.000
    O392     O        0.01897    0.89403    0.00243    1.000
    C750     C        0.83247    0.83093    0.93143    1.000
    O393     O        0.05767    0.86953    0.02443    1.000
    C751     C        0.79277    0.79053    0.92573    1.000
    H583     H        0.79757    0.76933    0.91563    1.000
    O394     O        0.05667    0.85053    0.02223    1.000
    C752     C        0.73497    0.77053    0.93333    1.000
    O395     O        0.87187    0.64943    0.97361    1.000
    C753     C        0.72977    0.80043    0.94823    1.000
    O396     O        0.85167    0.44423    0.98133    1.000
    C754     C        0.89287    0.84693    0.92293    1.000
    O397     O        0.77777    0.40093    0.00453    1.000
    C755     C        0.67407    0.74843    0.97393    1.000
    H584     H        0.68597    0.72323    0.96983    1.000
    H585     H        0.63617    0.72823    0.97803    1.000
    H586     H        0.69597    0.77023    0.98543    1.000
    O398     O        0.88447    0.64663    0.03671    1.000
    C756     C        0.68847    0.71783    0.92513    1.000
    H587     H        0.67747    0.69003    0.93593    1.000
    H588     H        0.70177    0.70603    0.91333    1.000
    O399     O        0.78557    0.68163    0.10503    1.000
    C757     C        0.72017    0.65603    0.99433    1.000
    O400     O        0.76627    0.74013    0.08853    1.000
    C758     C        0.68757    0.62253    0.97833    1.000
    H589     H        0.65087    0.59733    0.98093    1.000
    O401     O        0.72717    0.56993    0.01646    1.000
    C759     C        0.70837    0.62553    0.95823    1.000
    C760     C        0.76507    0.66483    0.95413    1.000
    H590     H        0.77937    0.66673    0.94093    1.000
    C761     C        0.79857    0.69973    0.96952    1.000
    O402     O        0.99107    0.80553    0.05813    1.000
    C762     C        0.77427    0.69613    0.98953    1.000
    O403     O        0.99277    0.78183    0.05503    1.000
    C763     C        0.67087    0.59063    0.94043    1.000
    C764     C        0.80537    0.78353    0.00413    1.000
    H591     H        0.76887    0.77583    0.00733    1.000
    H592     H        0.83057    0.80893    0.01423    1.000
    H593     H        0.81557    0.79933    0.99043    1.000
    O404     O        0.69517    0.42783    0.98953    1.000
    C765     C        0.85787    0.74323    0.96513    1.000
    H594     H        0.86067    0.77903    0.96573    1.000
    H595     H        0.86677    0.73813    0.95093    1.000
    O405     O        0.70947    0.42913    0.98333    1.000
    C766     C        0.90017    0.74333    0.97959    1.000
    O406     O        0.65207    0.48203    0.96013    1.000
    C767     C        0.93747    0.79313    0.98843    1.000
    H596     H        0.93497    0.82423    0.98543    1.000
    O407     O        0.64097    0.48703    0.96663    1.000
    C768     C        0.97967    0.79773    0.00219    1.000
    C769     C        0.98157    0.75013    0.00653    1.000
    H597     H        0.00857    0.75223    0.01543    1.000
    C770     C        0.94527    0.70103    0.99803    1.000
    C771     C        0.90557    0.69653    0.98378    1.000
    C772     C        0.01957    0.85683    0.01013    1.000
    C773     C        0.89577    0.64593    0.95393    1.000
    H598     H        0.93267    0.65353    0.95633    1.000
    H599     H        0.87417    0.60973    0.94823    1.000
    H600     H        0.89627    0.67243    0.94433    1.000
    C774     C        0.95047    0.65093    0.00293    1.000
    H601     H        0.96467    0.64223    0.99053    1.000
    H602     H        0.97787    0.66093    0.01383    1.000
    C775     C        0.89817    0.59813    0.00983    1.000
    C776     C        0.88037    0.54693    0.00093    1.000
    H603     H        0.90017    0.54533    0.98963    1.000
    C777     C        0.83667    0.49913    0.00723    1.000
    C778     C        0.80527    0.50093    0.02203    1.000
    H604     H        0.77337    0.46883    0.02583    1.000
    C779     C        0.81947    0.55313    0.03283    1.000
    C780     C        0.86637    0.59863    0.02623    1.000
    C781     C        0.82207    0.44223    0.99473    1.000
    C782     C        0.91907    0.65323    0.05473    1.000
    H605     H        0.93847    0.63373    0.05233    1.000
    H606     H        0.94497    0.69153    0.05673    1.000
    H607     H        0.89647    0.63893    0.06693    1.000
    C783     C        0.78607    0.55303    0.05073    1.000
    H608     H        0.75337    0.51703    0.05153    1.000
    H609     H        0.80697    0.55813    0.06343    1.000
    C784     C        0.76837    0.59563    0.05029    1.000
    C785     C        0.77747    0.62793    0.06770    1.000
    H610     H        0.79457    0.62243    0.07913    1.000
    C786     C        0.76247    0.66833    0.06933    1.000
    Rb66     Rb       0.52545    0.54975    0.96171    1.000
    C787     C        0.73687    0.67503    0.05192    1.000
    H611     H        0.72707    0.70213    0.05213    1.000
    C788     C        0.72527    0.64263    0.03408    1.000
    C789     C        0.74147    0.60573    0.03373    1.000
    C790     C        0.77317    0.69673    0.08853    1.000
    C791     C        0.67277    0.51953    0.01763    1.000
    H612     H        0.64447    0.52893    0.01633    1.000
    H613     H        0.66947    0.49503    0.00653    1.000
    H614     H        0.66917    0.50183    0.03083    1.000
    C792     C        0.69657    0.65153    0.01523    1.000
    H615     H        0.69507    0.68473    0.01773    1.000
    H616     H        0.65897    0.62123    0.01493    1.000
    Rb67     Rb       0.43223    0.87943    0.30923    1.000
    O408     O        0.14683    0.94017    0.27377    1.000
    C793     C        0.30743    0.08797    0.23531    1.000
    Rb68     Rb       0.54461    0.07873    0.37329    1.000
    O409     O        0.11533    0.98357    0.25987    1.000
    C794     C        0.30403    0.05327    0.25137    1.000
    Rb69     Rb       0.24776    0.12177    0.28640    1.000
    O410     O        0.35723    0.12057    0.22455    1.000
    C795     C        0.25683    0.02107    0.25967    1.000
    H617     H        0.25553    0.99767    0.27027    1.000
    Rb70     Rb       0.45810    0.23001    0.22824    1.000
    O411     O        0.41243    0.28117    0.16717    1.000
    C796     C        0.20533    0.01857    0.25387    1.000
    Rb71     Rb       0.18843    0.89427    0.30045    1.000
    O412     O        0.45043    0.35617    0.18727    1.000
    C797     C        0.21073    0.05527    0.23798    1.000
    H618     H        0.17993    0.05697    0.23367    1.000
    O413     O        0.26943    0.18847    0.24876    1.000
    C798     C        0.26233    0.08997    0.22809    1.000
    O414     O        0.23033    0.24017    0.32427    1.000
    C799     C        0.15323    0.98047    0.26317    1.000
    O415     O        0.27953    0.20817    0.34377    1.000
    C800     C        0.36573    0.09217    0.20737    1.000
    H619     H        0.38163    0.07117    0.21257    1.000
    H620     H        0.39003    0.11847    0.19737    1.000
    H621     H        0.33123    0.06797    0.20087    1.000
    O416     O        0.43023    0.27197    0.26597    1.000
    C801     C        0.26373    0.12997    0.21167    1.000
    H622     H        0.27003    0.11857    0.19817    1.000
    H623     H        0.22793    0.12707    0.21117    1.000
    O417     O        0.59623    0.22317    0.26377    1.000
    C802     C        0.30613    0.18917    0.21487    1.000
    O418     O        0.56593    0.15517    0.24247    1.000
    C803     C        0.34013    0.21767    0.19977    1.000
    H624     H        0.33863    0.20007    0.18737    1.000
    O419     O        0.34653    0.11607    0.29051    1.000
    C804     C        0.37953    0.27487    0.20187    1.000
    C805     C        0.38113    0.30017    0.22097    1.000
    H625     H        0.40623    0.33727    0.22297    1.000
    C806     C        0.34543    0.26977    0.23677    1.000
    C807     C        0.30603    0.21557    0.23417    1.000
    C808     C        0.41793    0.30637    0.18237    1.000
    C809     C        0.22253    0.19497    0.24467    1.000
    H626     H        0.22753    0.22767    0.25137    1.000
    H627     H        0.18993    0.16367    0.24987    1.000
    H628     H        0.21903    0.19807    0.22987    1.000
    O420     O        0.14133    0.09667    0.27987    1.000
    C810     C        0.34563    0.29877    0.25787    1.000
    H629     H        0.37633    0.33607    0.25727    1.000
    H630     H        0.31243    0.30137    0.25807    1.000
    O421     O        0.31133    0.80367    0.46397    1.000
    C811     C        0.34893    0.27477    0.27807    1.000
    C812     C        0.31113    0.26357    0.29227    1.000
    H631     H        0.28213    0.26957    0.28937    1.000
    C813     C        0.31393    0.24337    0.31107    1.000
    C814     C        0.35903    0.22957    0.31137    1.000
    H632     H        0.36003    0.21287    0.32377    1.000
    O422     O        0.10073    0.83297    0.29407    1.000
    C815     C        0.39593    0.23547    0.29867    1.000
    O423     O        0.22333    0.82327    0.32217    1.000
    C816     C        0.39403    0.26317    0.28057    1.000
    O424     O        0.20223    0.81167    0.32387    1.000
    C817     C        0.26973    0.23317    0.32697    1.000
    O425     O        0.28723    0.89747    0.27689    1.000
    C818     C        0.47723    0.32497    0.27077    1.000
    H633     H        0.47993    0.35157    0.26077    1.000
    H634     H        0.51013    0.32247    0.27037    1.000
    H635     H        0.47303    0.33617    0.28447    1.000
    O426     O        0.36163    0.92467    0.25687    1.000
    C819     C        0.43363    0.21817    0.30457    1.000
    H636     H        0.42043    0.19647    0.31717    1.000
    H637     H        0.46873    0.25027    0.30767    1.000
    O427     O        0.36833    0.89667    0.25637    1.000
    C820     C        0.44233    0.18327    0.28747    1.000
    O428     O        0.47403    0.06767    0.33815    1.000
    C821     C        0.49473    0.19517    0.27797    1.000
    H638     H        0.52643    0.22727    0.28187    1.000
    O429     O        0.68563    0.22737    0.33577    1.000
    C822     C        0.49913    0.16427    0.26477    1.000
    O430     O        0.72433    0.20287    0.35777    1.000
    C823     C        0.45943    0.12387    0.25907    1.000
    H639     H        0.46423    0.10267    0.24897    1.000
    O431     O        0.72333    0.18387    0.35557    1.000
    C824     C        0.40163    0.10387    0.26667    1.000
    O432     O        0.53853    0.98277    0.30695    1.000
    C825     C        0.39643    0.13377    0.28157    1.000
    O433     O        0.51833    0.77757    0.31467    1.000
    C826     C        0.55953    0.18027    0.25627    1.000
    O434     O        0.44443    0.73427    0.33787    1.000
    C827     C        0.34073    0.08177    0.30727    1.000
    H640     H        0.35263    0.05657    0.30317    1.000
    H641     H        0.30283    0.06157    0.31137    1.000
    H642     H        0.36263    0.10357    0.31877    1.000
    O435     O        0.55113    0.97997    0.37005    1.000
    C828     C        0.35513    0.05117    0.25847    1.000
    H643     H        0.34413    0.02337    0.26927    1.000
    H644     H        0.36843    0.03937    0.24667    1.000
    O436     O        0.45223    0.01497    0.43837    1.000
    C829     C        0.38683    0.98937    0.32767    1.000
    O437     O        0.43293    0.07347    0.42187    1.000
    C830     C        0.35423    0.95587    0.31167    1.000
    H645     H        0.31753    0.93067    0.31427    1.000
    O438     O        0.39383    0.90327    0.34980    1.000
    C831     C        0.37503    0.95887    0.29157    1.000
    C832     C        0.43173    0.99817    0.28747    1.000
    H646     H        0.44603    0.00007    0.27427    1.000
    C833     C        0.46523    0.03307    0.30286    1.000
    O439     O        0.65773    0.13887    0.39147    1.000
    C834     C        0.44093    0.02947    0.32287    1.000
    O440     O        0.65943    0.11517    0.38837    1.000
    C835     C        0.33753    0.92397    0.27377    1.000
    C836     C        0.47203    0.11687    0.33747    1.000
    H647     H        0.43553    0.10917    0.34067    1.000
    H648     H        0.49723    0.14227    0.34757    1.000
    H649     H        0.48223    0.13267    0.32377    1.000
    O441     O        0.36183    0.76117    0.32287    1.000
    C837     C        0.52453    0.07657    0.29847    1.000
    H650     H        0.52733    0.11237    0.29907    1.000
    H651     H        0.53343    0.07147    0.28427    1.000
    O442     O        0.37613    0.76247    0.31667    1.000
    C838     C        0.56683    0.07667    0.31293    1.000
    O443     O        0.31873    0.81537    0.29347    1.000
    C839     C        0.60413    0.12647    0.32177    1.000
    H652     H        0.60163    0.15757    0.31877    1.000
    O444     O        0.30763    0.82037    0.29997    1.000
    C840     C        0.64633    0.13107    0.33553    1.000
    C841     C        0.64823    0.08347    0.33987    1.000
    H653     H        0.67523    0.08557    0.34877    1.000
    C842     C        0.61193    0.03437    0.33137    1.000
    C843     C        0.57223    0.02987    0.31712    1.000
    C844     C        0.68623    0.19017    0.34347    1.000
    C845     C        0.56243    0.97927    0.28727    1.000
    H654     H        0.59933    0.98687    0.28967    1.000
    H655     H        0.54083    0.94307    0.28157    1.000
    H656     H        0.56293    0.00577    0.27767    1.000
    C846     C        0.61713    0.98427    0.33627    1.000
    H657     H        0.63133    0.97557    0.32387    1.000
    H658     H        0.64453    0.99427    0.34717    1.000
    C847     C        0.56483    0.93147    0.34317    1.000
    C848     C        0.54703    0.88027    0.33427    1.000
    H659     H        0.56683    0.87867    0.32297    1.000
    C849     C        0.50333    0.83247    0.34057    1.000
    C850     C        0.47193    0.83427    0.35537    1.000
    H660     H        0.44003    0.80217    0.35917    1.000
    C851     C        0.48613    0.88647    0.36617    1.000
    C852     C        0.53303    0.93197    0.35957    1.000
    C853     C        0.48873    0.77557    0.32807    1.000
    C854     C        0.58573    0.98657    0.38807    1.000
    H661     H        0.60513    0.96707    0.38567    1.000
    H662     H        0.61163    0.02487    0.39007    1.000
    H663     H        0.56313    0.97227    0.40027    1.000
    C855     C        0.45273    0.88637    0.38407    1.000
    H664     H        0.42003    0.85037    0.38487    1.000
    H665     H        0.47363    0.89147    0.39677    1.000
    C856     C        0.43503    0.92897    0.38363    1.000
    C857     C        0.44413    0.96127    0.40104    1.000
    H666     H        0.46123    0.95577    0.41247    1.000
    C858     C        0.42913    0.00167    0.40267    1.000
    Rb72     Rb       0.19211    0.88309    0.29505    1.000
    C859     C        0.40353    0.00837    0.38526    1.000
    H667     H        0.39373    0.03547    0.38547    1.000
    C860     C        0.39193    0.97597    0.36742    1.000
    C861     C        0.40813    0.93907    0.36707    1.000
    C862     C        0.43983    0.03007    0.42187    1.000
    C863     C        0.33943    0.85287    0.35097    1.000
    H668     H        0.31113    0.86227    0.34967    1.000
    H669     H        0.33613    0.82837    0.33987    1.000
    H670     H        0.33583    0.83517    0.36417    1.000
    C864     C        0.36323    0.98487    0.34857    1.000
    H671     H        0.36173    0.01807    0.35107    1.000
    H672     H        0.32563    0.95457    0.34827    1.000
    Rb73     Rb       0.11386    0.90110    0.64256    1.000
    O445     O        0.46000    0.18650    0.60710    1.000
    C865     C        0.44720    0.02590    0.56864    1.000
    Rb74     Rb       0.20078    0.78872    0.70662    1.000
    O446     O        0.53490    0.21800    0.59320    1.000
    C866     C        0.41590    0.02930    0.58470    1.000
    Rb75     Rb       0.54067    0.08557    0.61973    1.000
    O447     O        0.43000    0.97610    0.55788    1.000
    C867     C        0.43090    0.07650    0.59300    1.000
    H673     H        0.40880    0.07780    0.60360    1.000
    Rb76     Rb       0.43857    0.87523    0.56157    1.000
    O448     O        0.53540    0.92090    0.50050    1.000
    C868     C        0.47990    0.12800    0.58720    1.000
    Rb77     Rb       0.37250    0.14490    0.63378    1.000
    O449     O        0.57240    0.88290    0.52060    1.000
    C869     C        0.51120    0.12260    0.57131    1.000
    H674     H        0.54370    0.15340    0.56700    1.000
    O450     O        0.58570    0.06390    0.58209    1.000
    C870     C        0.49430    0.07100    0.56142    1.000
    O451     O        0.67650    0.10300    0.65760    1.000
    C871     C        0.49390    0.18010    0.59650    1.000
    O452     O        0.59530    0.05380    0.67710    1.000
    C872     C        0.39310    0.96760    0.54070    1.000
    H675     H        0.35620    0.95170    0.54590    1.000
    H676     H        0.39510    0.94330    0.53070    1.000
    H677     H        0.40340    0.00210    0.53420    1.000
    O453     O        0.50840    0.90310    0.59930    1.000
    C873     C        0.53290    0.06960    0.54500    1.000
    H678     H        0.51520    0.06330    0.53150    1.000
    H679     H        0.56580    0.10540    0.54450    1.000
    O454     O        0.29360    0.73710    0.59710    1.000
    C874     C        0.54970    0.02720    0.54820    1.000
    O455     O        0.25590    0.76740    0.57580    1.000
    C875     C        0.54420    0.99320    0.53310    1.000
    H680     H        0.52810    0.99470    0.52070    1.000
    O456     O        0.43620    0.98680    0.62384    1.000
    C876     C        0.56200    0.95380    0.53520    1.000
    C877     C        0.58570    0.95220    0.55430    1.000
    H681     H        0.59770    0.92710    0.55630    1.000
    C878     C        0.59100    0.98790    0.57010    1.000
    C879     C        0.57620    0.02730    0.56750    1.000
    C880     C        0.55510    0.91540    0.51570    1.000
    C881     C        0.63910    0.11080    0.57800    1.000
    H682     H        0.66680    0.10580    0.58470    1.000
    H683     H        0.64040    0.14340    0.58320    1.000
    H684     H        0.64570    0.11430    0.56320    1.000
    O457     O        0.62200    0.19200    0.61320    1.000
    C882     C        0.61980    0.98770    0.59120    1.000
    H685     H        0.62640    0.95700    0.59060    1.000
    H686     H        0.65560    0.02090    0.59140    1.000
    O458     O        0.15900    0.02200    0.79730    1.000
    C883     C        0.59250    0.98440    0.61140    1.000
    C884     C        0.61910    0.02220    0.62560    1.000
    H687     H        0.65410    0.05120    0.62270    1.000
    C885     C        0.59610    0.01940    0.64440    1.000
    C886     C        0.53720    0.97430    0.64470    1.000
    H688     H        0.51950    0.97330    0.65710    1.000
    O459     O        0.39890    0.23260    0.62740    1.000
    C887     C        0.50620    0.93740    0.63200    1.000
    O460     O        0.26660    0.11000    0.65550    1.000
    C888     C        0.53580    0.93930    0.61390    1.000
    O461     O        0.27610    0.13110    0.65720    1.000
    C889     C        0.63010    0.06360    0.66030    1.000
    O462     O        0.27690    0.04610    0.61022    1.000
    C890     C        0.51440    0.85610    0.60410    1.000
    H689     H        0.53830    0.85340    0.59410    1.000
    H690     H        0.47900    0.82320    0.60370    1.000
    H691     H        0.52980    0.86030    0.61780    1.000
    O463     O        0.22970    0.97170    0.59020    1.000
    C891     C        0.45120    0.89970    0.63790    1.000
    H692     H        0.44270    0.91290    0.65050    1.000
    H693     H        0.44820    0.86460    0.64100    1.000
    O464     O        0.19500    0.96500    0.58970    1.000
    C892     C        0.40760    0.89100    0.62080    1.000
    O465     O        0.26030    0.85930    0.67148    1.000
    C893     C        0.36710    0.83860    0.61130    1.000
    H694     H        0.36750    0.80690    0.61520    1.000
    O466     O        0.20840    0.64770    0.66910    1.000
    C894     C        0.33180    0.83420    0.59810    1.000
    O467     O        0.14520    0.60900    0.69110    1.000
    C895     C        0.33110    0.87390    0.59240    1.000
    H695     H        0.30510    0.86910    0.58230    1.000
    O468     O        0.12720    0.61000    0.68890    1.000
    C896     C        0.36890    0.93170    0.60000    1.000
    O469     O        0.11090    0.79480    0.64028    1.000
    C897     C        0.40400    0.93690    0.61490    1.000
    O470     O        0.92590    0.81500    0.64800    1.000
    C898     C        0.28740    0.77380    0.58960    1.000
    O471     O        0.95650    0.88890    0.67120    1.000
    C899     C        0.40770    0.99260    0.64060    1.000
    H696     H        0.37060    0.98070    0.63650    1.000
    H697     H        0.42540    0.03050    0.64470    1.000
    H698     H        0.40760    0.97070    0.65210    1.000
    O472     O        0.09550    0.78220    0.70338    1.000
    C900     C        0.36270    0.97820    0.59180    1.000
    H699     H        0.34590    0.98920    0.60260    1.000
    H700     H        0.33760    0.96490    0.58000    1.000
    O473     O        0.22940    0.88110    0.77170    1.000
    C901     C        0.26920    0.94650    0.66100    1.000
    O474     O        0.30720    0.90040    0.75520    1.000
    C902     C        0.26830    0.97910    0.64500    1.000
    H701     H        0.27980    0.01580    0.64760    1.000
    O475     O        0.17610    0.93950    0.68313    1.000
    C903     C        0.25050    0.95830    0.62490    1.000
    C904     C        0.23310    0.90160    0.62080    1.000
    H702     H        0.22070    0.88730    0.60760    1.000
    C905     C        0.23450    0.86810    0.63619    1.000
    O476     O        0.14780    0.67560    0.72480    1.000
    C906     C        0.25520    0.89240    0.65620    1.000
    O477     O        0.12240    0.67390    0.72170    1.000
    C907     C        0.25310    0.99580    0.60710    1.000
    C908     C        0.31150    0.86130    0.67080    1.000
    H703     H        0.34030    0.89780    0.67400    1.000
    H704     H        0.31170    0.83610    0.68090    1.000
    H705     H        0.31710    0.85110    0.65710    1.000
    O478     O        0.06600    0.97150    0.65620    1.000
    C909     C        0.21870    0.80880    0.63180    1.000
    H706     H        0.25170    0.80600    0.63240    1.000
    H707     H        0.20470    0.79990    0.61760    1.000
    O479     O        0.05300    0.95720    0.65000    1.000
    C910     C        0.17650    0.76650    0.64626    1.000
    O480     O        0.16330    0.01460    0.62680    1.000
    C911     C        0.18900    0.72920    0.65510    1.000
    H708     H        0.22260    0.73170    0.65210    1.000
    O481     O        0.17940    0.02570    0.63330    1.000
    C912     C        0.15140    0.68700    0.66886    1.000
    C913     C        0.10190    0.68510    0.67320    1.000
    H709     H        0.07700    0.65810    0.68210    1.000
    C914     C        0.08910    0.72140    0.66470    1.000
    C915     C        0.12430    0.76110    0.65045    1.000
    C916     C        0.17060    0.64710    0.67680    1.000
    C917     C        0.08350    0.77090    0.62060    1.000
    H710     H        0.05420    0.73400    0.62300    1.000
    H711     H        0.06890    0.79250    0.61490    1.000
    H712     H        0.10950    0.77040    0.61100    1.000
    C918     C        0.03380    0.71620    0.66960    1.000
    H713     H        0.01090    0.70200    0.65720    1.000
    H714     H        0.01640    0.68880    0.68050    1.000
    C919     C        0.03330    0.76850    0.67650    1.000
    C920     C        0.99990    0.78630    0.66760    1.000
    H715     H        0.97850    0.76650    0.65630    1.000
    C921     C        0.99580    0.83000    0.67390    1.000
    C922     C        0.02900    0.86140    0.68870    1.000
    H716     H        0.02880    0.89330    0.69250    1.000
    C923     C        0.06700    0.84720    0.69950    1.000
    C924     C        0.06560    0.80030    0.69290    1.000
    C925     C        0.95350    0.84460    0.66140    1.000
    C926     C        0.06750    0.74760    0.72140    1.000
    H717     H        0.02860    0.72820    0.71900    1.000
    H718     H        0.07990    0.72170    0.72340    1.000
    H719     H        0.07580    0.77020    0.73360    1.000
    C927     C        0.10030    0.88060    0.71740    1.000
    H720     H        0.09700    0.91330    0.71820    1.000
    H721     H        0.08450    0.85970    0.73010    1.000
    C928     C        0.16060    0.89830    0.71696    1.000
    C929     C        0.18380    0.88920    0.73437    1.000
    H722     H        0.16120    0.87210    0.74580    1.000
    C930     C        0.23920    0.90420    0.73600    1.000
    Rb78     Rb       0.35764    0.14122    0.62838    1.000
    C931     C        0.27150    0.92980    0.71859    1.000
    H723     H        0.30840    0.93960    0.71880    1.000
    C932     C        0.25070    0.94140    0.70075    1.000
    C933     C        0.19760    0.92520    0.70040    1.000
    C934     C        0.25690    0.89350    0.75520    1.000
    C935     C        0.18010    0.99390    0.68430    1.000
    H724     H        0.21780    0.02220    0.68300    1.000
    H725     H        0.15890    0.99720    0.67320    1.000
    H726     H        0.16600    0.99750    0.69750    1.000
    C936     C        0.28830    0.97010    0.68190    1.000
    H727     H        0.32300    0.97160    0.68440    1.000
    H728     H        0.29560    0.00770    0.68160    1.000
    Rb79     Rb       0.78053    0.23443    0.97589    1.000
    O482     O        0.12667    0.51983    0.94043    1.000
    C937     C        0.11387    0.35923    0.90197    1.000
    Rb80     Rb       0.86745    0.12205    0.03995    1.000
    O483     O        0.20157    0.55133    0.92653    1.000
    C938     C        0.08257    0.36263    0.91803    1.000
    Rb81     Rb       0.20734    0.41890    0.95306    1.000
    O484     O        0.09667    0.30943    0.89121    1.000
    C939     C        0.09757    0.40983    0.92633    1.000
    H729     H        0.07547    0.41113    0.93693    1.000
    Rb82     Rb       0.10524    0.20856    0.89490    1.000
    O485     O        0.20207    0.25423    0.83383    1.000
    C940     C        0.14657    0.46133    0.92053    1.000
    Rb83     Rb       0.03917    0.47823    0.96711    1.000
    O486     O        0.23907    0.21623    0.85393    1.000
    C941     C        0.17787    0.45593    0.90464    1.000
    H730     H        0.21037    0.48673    0.90033    1.000
    O487     O        0.25237    0.39723    0.91542    1.000
    C942     C        0.16097    0.40433    0.89475    1.000
    O488     O        0.34317    0.43633    0.99093    1.000
    C943     C        0.16057    0.51343    0.92983    1.000
    O489     O        0.26197    0.38713    0.01043    1.000
    C944     C        0.05977    0.30093    0.87403    1.000
    H731     H        0.02287    0.28503    0.87923    1.000
    H732     H        0.06177    0.27663    0.86403    1.000
    H733     H        0.07007    0.33543    0.86753    1.000
    O490     O        0.17507    0.23643    0.93263    1.000
    C945     C        0.19957    0.40293    0.87833    1.000
    H734     H        0.18187    0.39663    0.86483    1.000
    H735     H        0.23247    0.43873    0.87783    1.000
    O491     O        0.96027    0.07043    0.93043    1.000
    C946     C        0.21637    0.36053    0.88153    1.000
    O492     O        0.92257    0.10073    0.90913    1.000
    C947     C        0.21087    0.32653    0.86643    1.000
    H736     H        0.19477    0.32803    0.85403    1.000
    O493     O        0.10287    0.32013    0.95717    1.000
    C948     C        0.22867    0.28713    0.86853    1.000
    C949     C        0.25237    0.28553    0.88763    1.000
    H737     H        0.26437    0.26043    0.88963    1.000
    C950     C        0.25767    0.32123    0.90343    1.000
    C951     C        0.24287    0.36063    0.90083    1.000
    C952     C        0.22177    0.24873    0.84903    1.000
    C953     C        0.30577    0.44413    0.91133    1.000
    H738     H        0.33347    0.43913    0.91803    1.000
    H739     H        0.30707    0.47673    0.91653    1.000
    H740     H        0.31237    0.44763    0.89653    1.000
    O494     O        0.28867    0.52533    0.94653    1.000
    C954     C        0.28647    0.32103    0.92453    1.000
    H741     H        0.29307    0.29033    0.92393    1.000
    H742     H        0.32227    0.35423    0.92473    1.000
    O495     O        0.82567    0.35533    0.13063    1.000
    C955     C        0.25917    0.31773    0.94473    1.000
    C956     C        0.28577    0.35553    0.95893    1.000
    H743     H        0.32077    0.38453    0.95603    1.000
    C957     C        0.26277    0.35273    0.97773    1.000
    C958     C        0.20387    0.30763    0.97803    1.000
    H744     H        0.18617    0.30663    0.99043    1.000
    O496     O        0.06557    0.56593    0.96073    1.000
    C959     C        0.17287    0.27073    0.96533    1.000
    O497     O        0.93327    0.44333    0.98883    1.000
    C960     C        0.20247    0.27263    0.94723    1.000
    O498     O        0.94277    0.46443    0.99053    1.000
    C961     C        0.29677    0.39693    0.99363    1.000
    O499     O        0.94357    0.37943    0.94355    1.000
    C962     C        0.18107    0.18943    0.93743    1.000
    H745     H        0.20497    0.18673    0.92743    1.000
    H746     H        0.14567    0.15653    0.93703    1.000
    H747     H        0.19647    0.19363    0.95113    1.000
    O500     O        0.89637    0.30503    0.92353    1.000
    C963     C        0.11787    0.23303    0.97123    1.000
    H748     H        0.10937    0.24623    0.98383    1.000
    H749     H        0.11487    0.19793    0.97433    1.000
    O501     O        0.86167    0.29833    0.92303    1.000
    C964     C        0.07427    0.22433    0.95413    1.000
    O502     O        0.92697    0.19263    0.00481    1.000
    C965     C        0.03377    0.17193    0.94463    1.000
    H750     H        0.03417    0.14023    0.94853    1.000
    O503     O        0.87507    0.98103    0.00243    1.000
    C966     C        0.99847    0.16753    0.93143    1.000
    O504     O        0.81187    0.94233    0.02443    1.000
    C967     C        0.99777    0.20723    0.92573    1.000
    H751     H        0.97177    0.20243    0.91563    1.000
    O505     O        0.79387    0.94333    0.02223    1.000
    C968     C        0.03557    0.26503    0.93333    1.000
    O506     O        0.77757    0.12813    0.97361    1.000
    C969     C        0.07067    0.27023    0.94823    1.000
    O507     O        0.59257    0.14833    0.98133    1.000
    C970     C        0.95407    0.10713    0.92293    1.000
    O508     O        0.62317    0.22223    0.00453    1.000
    C971     C        0.07437    0.32593    0.97393    1.000
    H752     H        0.03727    0.31403    0.96983    1.000
    H753     H        0.09207    0.36383    0.97803    1.000
    H754     H        0.07427    0.30403    0.98543    1.000
    O509     O        0.76217    0.11553    0.03671    1.000
    C972     C        0.02937    0.31153    0.92513    1.000
    H755     H        0.01257    0.32253    0.93593    1.000
    H756     H        0.00427    0.29823    0.91333    1.000
    O510     O        0.89607    0.21443    0.10503    1.000
    C973     C        0.93587    0.27983    0.99433    1.000
    O511     O        0.97387    0.23373    0.08853    1.000
    C974     C        0.93497    0.31243    0.97833    1.000
    H757     H        0.94647    0.34913    0.98093    1.000
    O512     O        0.84277    0.27283    0.01646    1.000
    C975     C        0.91717    0.29163    0.95823    1.000
    C976     C        0.89977    0.23493    0.95413    1.000
    H758     H        0.88737    0.22063    0.94093    1.000
    C977     C        0.90117    0.20143    0.96952    1.000
    O513     O        0.81447    0.00893    0.05813    1.000
    C978     C        0.92187    0.22573    0.98953    1.000
    O514     O        0.78907    0.00723    0.05503    1.000
    C979     C        0.91977    0.32913    0.94043    1.000
    C980     C        0.97817    0.19463    0.00413    1.000
    H759     H        0.00697    0.23113    0.00733    1.000
    H760     H        0.97837    0.16943    0.01423    1.000
    H761     H        0.98377    0.18443    0.99043    1.000
    O515     O        0.73267    0.30483    0.98953    1.000
    C981     C        0.88537    0.14213    0.96513    1.000
    H762     H        0.91837    0.13933    0.96573    1.000
    H763     H        0.87137    0.13323    0.95093    1.000
    O516     O        0.71967    0.29053    0.98333    1.000
    C982     C        0.84317    0.09983    0.97959    1.000
    O517     O        0.82997    0.34793    0.96013    1.000
    C983     C        0.85567    0.06253    0.98843    1.000
    H764     H        0.88927    0.06503    0.98543    1.000
    O518     O        0.84607    0.35903    0.96663    1.000
    C984     C        0.81807    0.02033    0.00219    1.000
    C985     C        0.76857    0.01843    0.00653    1.000
    H765     H        0.74367    0.99143    0.01543    1.000
    C986     C        0.75577    0.05473    0.99803    1.000
    C987     C        0.79097    0.09443    0.98378    1.000
    C988     C        0.83727    0.98043    0.01013    1.000
    C989     C        0.75017    0.10423    0.95393    1.000
    H766     H        0.72087    0.06733    0.95633    1.000
    H767     H        0.73557    0.12583    0.94823    1.000
    H768     H        0.77617    0.10373    0.94433    1.000
    C990     C        0.70047    0.04953    0.00293    1.000
    H769     H        0.67757    0.03533    0.99053    1.000
    H770     H        0.68307    0.02213    0.01383    1.000
    C991     C        0.69997    0.10183    0.00983    1.000
    C992     C        0.66657    0.11963    0.00093    1.000
    H771     H        0.64517    0.09983    0.98963    1.000
    C993     C        0.66247    0.16333    0.00723    1.000
    C994     C        0.69567    0.19473    0.02203    1.000
    H772     H        0.69547    0.22663    0.02583    1.000
    C995     C        0.73367    0.18053    0.03283    1.000
    C996     C        0.73227    0.13363    0.02623    1.000
    C997     C        0.62017    0.17793    0.99473    1.000
    C998     C        0.73417    0.08093    0.05473    1.000
    H773     H        0.69527    0.06153    0.05233    1.000
    H774     H        0.74657    0.05503    0.05673    1.000
    H775     H        0.74247    0.10353    0.06693    1.000
    C999     C        0.76697    0.21393    0.05073    1.000
    H776     H        0.76367    0.24663    0.05153    1.000
    H777     H        0.75117    0.19303    0.06343    1.000
    C1000    C        0.82727    0.23163    0.05029    1.000
    C1001    C        0.85047    0.22253    0.06770    1.000
    H778     H        0.82787    0.20543    0.07913    1.000
    C1002    C        0.90587    0.23753    0.06933    1.000
    Rb84     Rb       0.02431    0.47455    0.96171    1.000
    C1003    C        0.93817    0.26313    0.05192    1.000
    H779     H        0.97507    0.27293    0.05213    1.000
    C1004    C        0.91737    0.27473    0.03408    1.000
    C1005    C        0.86427    0.25853    0.03373    1.000
    C1006    C        0.92357    0.22683    0.08853    1.000
    C1007    C        0.84677    0.32723    0.01763    1.000
    H780     H        0.88447    0.35553    0.01633    1.000
    H781     H        0.82557    0.33053    0.00653    1.000
    H782     H        0.83267    0.33083    0.03083    1.000
    C1008    C        0.95497    0.30343    0.01523    1.000
    H783     H        0.98967    0.30493    0.01773    1.000
    H784     H        0.96227    0.34103    0.01493    1.000
    Rb85     Rb       0.44719    0.56777    0.30923    1.000
    O519     O        0.79333    0.85317    0.27377    1.000
    C1009    C        0.78053    0.69257    0.23531    1.000
    Rb86     Rb       0.53411    0.45539    0.37329    1.000
    O520     O        0.86823    0.88467    0.25987    1.000
    C1010    C        0.74923    0.69597    0.25137    1.000
    Rb87     Rb       0.87400    0.75224    0.28640    1.000
    O521     O        0.76333    0.64277    0.22455    1.000
    C1011    C        0.76423    0.74317    0.25967    1.000
    H785     H        0.74213    0.74447    0.27027    1.000
    Rb88     Rb       0.77190    0.54190    0.22824    1.000
    O522     O        0.86873    0.58757    0.16717    1.000
    C1012    C        0.81323    0.79467    0.25387    1.000
    Rb89     Rb       0.70583    0.81157    0.30045    1.000
    O523     O        0.90573    0.54957    0.18727    1.000
    C1013    C        0.84453    0.78927    0.23798    1.000
    H786     H        0.87703    0.82007    0.23367    1.000
    O524     O        0.91903    0.73057    0.24876    1.000
    C1014    C        0.82763    0.73767    0.22809    1.000
    O525     O        0.00983    0.76967    0.32427    1.000
    C1015    C        0.82723    0.84677    0.26317    1.000
    O526     O        0.92863    0.72047    0.34377    1.000
    C1016    C        0.72643    0.63427    0.20737    1.000
    H787     H        0.68953    0.61837    0.21257    1.000
    H788     H        0.72843    0.60997    0.19737    1.000
    H789     H        0.73673    0.66877    0.20087    1.000
    O527     O        0.84173    0.56977    0.26597    1.000
    C1017    C        0.86623    0.73627    0.21167    1.000
    H790     H        0.84853    0.72997    0.19817    1.000
    H791     H        0.89913    0.77207    0.21117    1.000
    O528     O        0.62693    0.40377    0.26377    1.000
    C1018    C        0.88303    0.69387    0.21487    1.000
    O529     O        0.58923    0.43407    0.24247    1.000
    C1019    C        0.87753    0.65987    0.19977    1.000
    H792     H        0.86143    0.66137    0.18737    1.000
    O530     O        0.76953    0.65347    0.29051    1.000
    C1020    C        0.89533    0.62047    0.20187    1.000
    C1021    C        0.91903    0.61887    0.22097    1.000
    H793     H        0.93103    0.59377    0.22297    1.000
    C1022    C        0.92433    0.65457    0.23677    1.000
    C1023    C        0.90953    0.69397    0.23417    1.000
    C1024    C        0.88843    0.58207    0.18237    1.000
    C1025    C        0.97243    0.77747    0.24467    1.000
    H794     H        0.00013    0.77247    0.25137    1.000
    H795     H        0.97373    0.81007    0.24987    1.000
    H796     H        0.97903    0.78097    0.22987    1.000
    O531     O        0.95533    0.85867    0.27987    1.000
    C1026    C        0.95313    0.65437    0.25787    1.000
    H797     H        0.95973    0.62367    0.25727    1.000
    H798     H        0.98893    0.68757    0.25807    1.000
    O532     O        0.49233    0.68867    0.46397    1.000
    C1027    C        0.92583    0.65107    0.27807    1.000
    C1028    C        0.95243    0.68887    0.29227    1.000
    H799     H        0.98743    0.71787    0.28937    1.000
    C1029    C        0.92943    0.68607    0.31107    1.000
    C1030    C        0.87053    0.64097    0.31137    1.000
    H800     H        0.85283    0.63997    0.32377    1.000
    O533     O        0.73223    0.89927    0.29407    1.000
    C1031    C        0.83953    0.60407    0.29867    1.000
    O534     O        0.59993    0.77667    0.32217    1.000
    C1032    C        0.86913    0.60597    0.28057    1.000
    O535     O        0.60943    0.79777    0.32387    1.000
    C1033    C        0.96343    0.73027    0.32697    1.000
    O536     O        0.61023    0.71277    0.27689    1.000
    C1034    C        0.84773    0.52277    0.27077    1.000
    H801     H        0.87163    0.52007    0.26077    1.000
    H802     H        0.81233    0.48987    0.27037    1.000
    H803     H        0.86313    0.52697    0.28447    1.000
    O537     O        0.56303    0.63837    0.25687    1.000
    C1035    C        0.78453    0.56637    0.30457    1.000
    H804     H        0.77603    0.57957    0.31717    1.000
    H805     H        0.78153    0.53127    0.30767    1.000
    O538     O        0.52833    0.63167    0.25637    1.000
    C1036    C        0.74093    0.55767    0.28747    1.000
    O539     O        0.59363    0.52597    0.33815    1.000
    C1037    C        0.70043    0.50527    0.27797    1.000
    H806     H        0.70083    0.47357    0.28187    1.000
    O540     O        0.54173    0.31437    0.33577    1.000
    C1038    C        0.66513    0.50087    0.26477    1.000
    O541     O        0.47853    0.27567    0.35777    1.000
    C1039    C        0.66443    0.54057    0.25907    1.000
    H807     H        0.63843    0.53577    0.24897    1.000
    O542     O        0.46053    0.27667    0.35557    1.000
    C1040    C        0.70223    0.59837    0.26667    1.000
    O543     O        0.44423    0.46147    0.30695    1.000
    C1041    C        0.73733    0.60357    0.28157    1.000
    O544     O        0.25923    0.48167    0.31467    1.000
    C1042    C        0.62073    0.44047    0.25627    1.000
    O545     O        0.28983    0.55557    0.33787    1.000
    C1043    C        0.74103    0.65927    0.30727    1.000
    H808     H        0.70393    0.64737    0.30317    1.000
    H809     H        0.75873    0.69717    0.31137    1.000
    H810     H        0.74093    0.63737    0.31877    1.000
    O546     O        0.42883    0.44887    0.37005    1.000
    C1044    C        0.69603    0.64487    0.25847    1.000
    H811     H        0.67923    0.65587    0.26927    1.000
    H812     H        0.67093    0.63157    0.24667    1.000
    O547     O        0.56273    0.54777    0.43837    1.000
    C1045    C        0.60253    0.61317    0.32767    1.000
    O548     O        0.64053    0.56707    0.42187    1.000
    C1046    C        0.60163    0.64577    0.31167    1.000
    H813     H        0.61313    0.68247    0.31427    1.000
    O549     O        0.50943    0.60617    0.34980    1.000
    C1047    C        0.58383    0.62497    0.29157    1.000
    C1048    C        0.56643    0.56827    0.28747    1.000
    H814     H        0.55403    0.55397    0.27427    1.000
    C1049    C        0.56783    0.53477    0.30286    1.000
    O550     O        0.48113    0.34227    0.39147    1.000
    C1050    C        0.58853    0.55907    0.32287    1.000
    O551     O        0.45573    0.34057    0.38837    1.000
    C1051    C        0.58643    0.66247    0.27377    1.000
    C1052    C        0.64483    0.52797    0.33747    1.000
    H815     H        0.67363    0.56447    0.34067    1.000
    H816     H        0.64503    0.50277    0.34757    1.000
    H817     H        0.65043    0.51777    0.32377    1.000
    O552     O        0.39933    0.63817    0.32287    1.000
    C1053    C        0.55203    0.47547    0.29847    1.000
    H818     H        0.58503    0.47267    0.29907    1.000
    H819     H        0.53803    0.46657    0.28427    1.000
    O553     O        0.38633    0.62387    0.31667    1.000
    C1054    C        0.50983    0.43317    0.31293    1.000
    O554     O        0.49663    0.68127    0.29347    1.000
    C1055    C        0.52233    0.39587    0.32177    1.000
    H820     H        0.55593    0.39837    0.31877    1.000
    O555     O        0.51273    0.69237    0.29997    1.000
    C1056    C        0.48473    0.35367    0.33553    1.000
    C1057    C        0.43523    0.35177    0.33987    1.000
    H821     H        0.41033    0.32477    0.34877    1.000
    C1058    C        0.42243    0.38807    0.33137    1.000
    C1059    C        0.45763    0.42777    0.31712    1.000
    C1060    C        0.50393    0.31377    0.34347    1.000
    C1061    C        0.41683    0.43757    0.28727    1.000
    H822     H        0.38753    0.40067    0.28967    1.000
    H823     H        0.40223    0.45917    0.28157    1.000
    H824     H        0.44283    0.43707    0.27767    1.000
    C1062    C        0.36713    0.38287    0.33627    1.000
    H825     H        0.34423    0.36867    0.32387    1.000
    H826     H        0.34973    0.35547    0.34717    1.000
    C1063    C        0.36663    0.43517    0.34317    1.000
    C1064    C        0.33323    0.45297    0.33427    1.000
    H827     H        0.31183    0.43317    0.32297    1.000
    C1065    C        0.32913    0.49667    0.34057    1.000
    C1066    C        0.36233    0.52807    0.35537    1.000
    H828     H        0.36213    0.55997    0.35917    1.000
    C1067    C        0.40033    0.51387    0.36617    1.000
    C1068    C        0.39893    0.46697    0.35957    1.000
    C1069    C        0.28683    0.51127    0.32807    1.000
    C1070    C        0.40083    0.41427    0.38807    1.000
    H829     H        0.36193    0.39487    0.38567    1.000
    H830     H        0.41323    0.38837    0.39007    1.000
    H831     H        0.40913    0.43687    0.40027    1.000
    C1071    C        0.43363    0.54727    0.38407    1.000
    H832     H        0.43033    0.57997    0.38487    1.000
    H833     H        0.41783    0.52637    0.39677    1.000
    C1072    C        0.49393    0.56497    0.38363    1.000
    C1073    C        0.51713    0.55587    0.40104    1.000
    H834     H        0.49453    0.53877    0.41247    1.000
    C1074    C        0.57253    0.57087    0.40267    1.000
    Rb90     Rb       0.69097    0.80789    0.29505    1.000
    C1075    C        0.60483    0.59647    0.38526    1.000
    H835     H        0.64173    0.60627    0.38547    1.000
    C1076    C        0.58403    0.60807    0.36742    1.000
    C1077    C        0.53093    0.59187    0.36707    1.000
    C1078    C        0.59023    0.56017    0.42187    1.000
    C1079    C        0.51343    0.66057    0.35097    1.000
    H836     H        0.55113    0.68887    0.34967    1.000
    H837     H        0.49223    0.66387    0.33987    1.000
    H838     H        0.49933    0.66417    0.36417    1.000
    C1080    C        0.62163    0.63677    0.34857    1.000
    H839     H        0.65633    0.63827    0.35107    1.000
    H840     H        0.62893    0.67437    0.34827    1.000
    Rb91     Rb       0.78724    0.88614    0.64256    1.000
    O556     O        0.72650    0.54000    0.60710    1.000
    C1081    C        0.57870    0.55280    0.56864    1.000
    Rb92     Rb       0.58794    0.79922    0.70662    1.000
    O557     O        0.68310    0.46510    0.59320    1.000
    C1082    C        0.61340    0.58410    0.58470    1.000
    Rb93     Rb       0.54490    0.45933    0.61973    1.000
    O558     O        0.54610    0.57000    0.55788    1.000
    C1083    C        0.64560    0.56910    0.59300    1.000
    H841     H        0.66900    0.59120    0.60360    1.000
    Rb94     Rb       0.43666    0.56143    0.56157    1.000
    O559     O        0.38550    0.46460    0.50050    1.000
    C1084    C        0.64810    0.52010    0.58720    1.000
    Rb95     Rb       0.77240    0.62750    0.63378    1.000
    O560     O        0.31050    0.42760    0.52060    1.000
    C1085    C        0.61140    0.48880    0.57131    1.000
    H842     H        0.60970    0.45630    0.56700    1.000
    O561     O        0.47820    0.41430    0.58209    1.000
    C1086    C        0.57670    0.50570    0.56142    1.000
    O562     O        0.42650    0.32350    0.65760    1.000
    C1087    C        0.68620    0.50610    0.59650    1.000
    O563     O        0.45850    0.40470    0.67710    1.000
    C1088    C        0.57450    0.60690    0.54070    1.000
    H843     H        0.59550    0.64380    0.54590    1.000
    H844     H        0.54820    0.60490    0.53070    1.000
    H845     H        0.59870    0.59660    0.53420    1.000
    O564     O        0.39470    0.49160    0.59930    1.000
    C1089    C        0.53670    0.46710    0.54500    1.000
    H846     H        0.54810    0.48480    0.53150    1.000
    H847     H        0.53960    0.43420    0.54450    1.000
    O565     O        0.44350    0.70640    0.59710    1.000
    C1090    C        0.47750    0.45030    0.54820    1.000
    O566     O        0.51150    0.74410    0.57580    1.000
    C1091    C        0.44900    0.45580    0.53310    1.000
    H848     H        0.46660    0.47190    0.52070    1.000
    O567     O        0.55060    0.56380    0.62384    1.000
    C1092    C        0.39180    0.43800    0.53520    1.000
    C1093    C        0.36650    0.41430    0.55430    1.000
    H849     H        0.32940    0.40230    0.55630    1.000
    C1094    C        0.39690    0.40900    0.57010    1.000
    C1095    C        0.45110    0.42380    0.56750    1.000
    C1096    C        0.36030    0.44490    0.51570    1.000
    C1097    C        0.47170    0.36090    0.57800    1.000
    H850     H        0.43900    0.33320    0.58470    1.000
    H851     H        0.50300    0.35960    0.58320    1.000
    H852     H        0.46860    0.35430    0.56320    1.000
    O568     O        0.57000    0.37800    0.61320    1.000
    C1098    C        0.36790    0.38020    0.59120    1.000
    H853     H        0.33060    0.37360    0.59060    1.000
    H854     H        0.36530    0.34440    0.59140    1.000
    O569     O        0.86300    0.84100    0.79730    1.000
    C1099    C        0.39190    0.40750    0.61140    1.000
    C1100    C        0.40310    0.38090    0.62560    1.000
    H855     H        0.39710    0.34590    0.62270    1.000
    C1101    C        0.42330    0.40390    0.64440    1.000
    C1102    C        0.43710    0.46280    0.64470    1.000
    H856     H        0.45380    0.48050    0.65710    1.000
    O570     O        0.83370    0.60110    0.62740    1.000
    C1103    C        0.43120    0.49380    0.63200    1.000
    O571     O        0.84340    0.73340    0.65550    1.000
    C1104    C        0.40350    0.46420    0.61390    1.000
    O572     O        0.85500    0.72390    0.65720    1.000
    C1105    C        0.43350    0.36990    0.66030    1.000
    O573     O        0.76920    0.72310    0.61022    1.000
    C1106    C        0.34170    0.48560    0.60410    1.000
    H857     H        0.31510    0.46170    0.59410    1.000
    H858     H        0.34420    0.52100    0.60370    1.000
    H859     H        0.33050    0.47020    0.61780    1.000
    O574     O        0.74200    0.77030    0.59020    1.000
    C1107    C        0.44850    0.54880    0.63790    1.000
    H860     H        0.47020    0.55730    0.65050    1.000
    H861     H        0.41640    0.55180    0.64100    1.000
    O575     O        0.77000    0.80500    0.58970    1.000
    C1108    C        0.48340    0.59240    0.62080    1.000
    O576     O        0.59900    0.73970    0.67148    1.000
    C1109    C        0.47150    0.63290    0.61130    1.000
    H862     H        0.43940    0.63250    0.61520    1.000
    O577     O        0.43930    0.79160    0.66910    1.000
    C1110    C        0.50240    0.66820    0.59810    1.000
    O578     O        0.46380    0.85480    0.69110    1.000
    C1111    C        0.54280    0.66890    0.59240    1.000
    H863     H        0.56400    0.69490    0.58230    1.000
    O579     O        0.48280    0.87280    0.68890    1.000
    C1112    C        0.56280    0.63110    0.60000    1.000
    O580     O        0.68390    0.88910    0.64028    1.000
    C1113    C        0.53290    0.59600    0.61490    1.000
    O581     O        0.88910    0.07410    0.64800    1.000
    C1114    C        0.48640    0.71260    0.58960    1.000
    O582     O        0.93240    0.04350    0.67120    1.000
    C1115    C        0.58490    0.59230    0.64060    1.000
    H864     H        0.61010    0.62940    0.63650    1.000
    H865     H        0.60510    0.57460    0.64470    1.000
    H866     H        0.56310    0.59240    0.65210    1.000
    O583     O        0.68670    0.90450    0.70338    1.000
    C1116    C        0.61550    0.63730    0.59180    1.000
    H867     H        0.64330    0.65410    0.60260    1.000
    H868     H        0.62730    0.66240    0.58000    1.000
    O584     O        0.65170    0.77060    0.77170    1.000
    C1117    C        0.67730    0.73080    0.66100    1.000
    O585     O        0.59320    0.69280    0.75520    1.000
    C1118    C        0.71080    0.73170    0.64500    1.000
    H869     H        0.73600    0.72020    0.64760    1.000
    O586     O        0.76340    0.82390    0.68313    1.000
    C1119    C        0.70780    0.74950    0.62490    1.000
    C1120    C        0.66850    0.76690    0.62080    1.000
    H870     H        0.66660    0.77930    0.60760    1.000
    C1121    C        0.63360    0.76550    0.63619    1.000
    O587     O        0.52780    0.85220    0.72480    1.000
    C1122    C        0.63720    0.74480    0.65620    1.000
    O588     O        0.55150    0.87760    0.72170    1.000
    C1123    C        0.74270    0.74690    0.60710    1.000
    C1124    C        0.54980    0.68850    0.67080    1.000
    H871     H        0.55750    0.65970    0.67400    1.000
    H872     H        0.52440    0.68830    0.68090    1.000
    H873     H        0.53400    0.68290    0.65710    1.000
    O589     O        0.90550    0.93400    0.65620    1.000
    C1125    C        0.59010    0.78130    0.63180    1.000
    H874     H        0.55430    0.74830    0.63240    1.000
    H875     H        0.59520    0.79530    0.61760    1.000
    O590     O        0.90420    0.94700    0.65000    1.000
    C1126    C        0.59000    0.82350    0.64626    1.000
    O591     O        0.85130    0.83670    0.62680    1.000
    C1127    C        0.54020    0.81100    0.65510    1.000
    H876     H        0.50910    0.77740    0.65210    1.000
    O592     O        0.84630    0.82060    0.63330    1.000
    C1128    C        0.53560    0.84860    0.66886    1.000
    C1129    C        0.58320    0.89810    0.67320    1.000
    H877     H        0.58110    0.92300    0.68210    1.000
    C1130    C        0.63230    0.91090    0.66470    1.000
    C1131    C        0.63680    0.87570    0.65045    1.000
    C1132    C        0.47650    0.82940    0.67680    1.000
    C1133    C        0.68740    0.91650    0.62060    1.000
    H878     H        0.67980    0.94580    0.62300    1.000
    H879     H        0.72360    0.93110    0.61490    1.000
    H880     H        0.66090    0.89050    0.61100    1.000
    C1134    C        0.68240    0.96620    0.66960    1.000
    H881     H        0.69110    0.98910    0.65720    1.000
    H882     H        0.67240    0.98360    0.68050    1.000
    C1135    C        0.73520    0.96670    0.67650    1.000
    C1136    C        0.78640    0.00010    0.66760    1.000
    H883     H        0.78800    0.02150    0.65630    1.000
    C1137    C        0.83420    0.00420    0.67390    1.000
    C1138    C        0.83240    0.97100    0.68870    1.000
    H884     H        0.86450    0.97120    0.69250    1.000
    C1139    C        0.78020    0.93300    0.69950    1.000
    C1140    C        0.73470    0.93440    0.69290    1.000
    C1141    C        0.89110    0.04650    0.66140    1.000
    C1142    C        0.68010    0.93250    0.72140    1.000
    H885     H        0.69960    0.97140    0.71900    1.000
    H886     H        0.64180    0.92010    0.72340    1.000
    H887     H        0.69440    0.92420    0.73360    1.000
    C1143    C        0.78030    0.89970    0.71740    1.000
    H888     H        0.81630    0.90300    0.71820    1.000
    H889     H        0.77520    0.91550    0.73010    1.000
    C1144    C        0.73770    0.83940    0.71696    1.000
    C1145    C        0.70540    0.81620    0.73437    1.000
    H890     H        0.71090    0.83880    0.74580    1.000
    C1146    C        0.66500    0.76080    0.73600    1.000
    Rb96     Rb       0.78358    0.64236    0.62838    1.000
    C1147    C        0.65830    0.72850    0.71859    1.000
    H891     H        0.63120    0.69160    0.71880    1.000
    C1148    C        0.69070    0.74930    0.70075    1.000
    C1149    C        0.72760    0.80240    0.70040    1.000
    C1150    C        0.63660    0.74310    0.75520    1.000
    C1151    C        0.81380    0.81990    0.68430    1.000
    H892     H        0.80440    0.78220    0.68300    1.000
    H893     H        0.83830    0.84110    0.67320    1.000
    H894     H        0.83150    0.83400    0.69750    1.000
    C1152    C        0.68180    0.71170    0.68190    1.000
    H895     H        0.64860    0.67700    0.68440    1.000
    H896     H        0.71210    0.70440    0.68160    1.000
    Rb97     Rb       0.45391    0.21947    0.97589    1.000
    O593     O        0.39317    0.87333    0.94043    1.000
    C1153    C        0.24537    0.88613    0.90197    1.000
    Rb98     Rb       0.25461    0.13255    0.03995    1.000
    O594     O        0.34977    0.79843    0.92653    1.000
    C1154    C        0.28007    0.91743    0.91803    1.000
    Rb99     Rb       0.21157    0.79266    0.95306    1.000
    O595     O        0.21277    0.90333    0.89121    1.000
    C1155    C        0.31227    0.90243    0.92633    1.000
    H897     H        0.33567    0.92453    0.93693    1.000
    Rb100    Rb       0.10333    0.89476    0.89490    1.000
    O596     O        0.05217    0.79793    0.83383    1.000
    C1156    C        0.31477    0.85343    0.92053    1.000
    Rb101    Rb       0.43907    0.96083    0.96711    1.000
    O597     O        0.97717    0.76093    0.85393    1.000
    C1157    C        0.27807    0.82213    0.90464    1.000
    H898     H        0.27637    0.78963    0.90033    1.000
    O598     O        0.14487    0.74763    0.91542    1.000
    C1158    C        0.24337    0.83903    0.89475    1.000
    O599     O        0.09317    0.65683    0.99093    1.000
    C1159    C        0.35287    0.83943    0.92983    1.000
    O600     O        0.12517    0.73803    0.01043    1.000
    C1160    C        0.24117    0.94023    0.87403    1.000
    H899     H        0.26217    0.97713    0.87923    1.000
    H900     H        0.21487    0.93823    0.86403    1.000
    H901     H        0.26537    0.92993    0.86753    1.000
    O601     O        0.06137    0.82493    0.93263    1.000
    C1161    C        0.20337    0.80043    0.87833    1.000
    H902     H        0.21477    0.81813    0.86483    1.000
    H903     H        0.20627    0.76753    0.87783    1.000
    O602     O        0.11017    0.03973    0.93043    1.000
    C1162    C        0.14417    0.78363    0.88153    1.000
    O603     O        0.17817    0.07743    0.90913    1.000
    C1163    C        0.11567    0.78913    0.86643    1.000
    H904     H        0.13327    0.80523    0.85403    1.000
    O604     O        0.21727    0.89713    0.95717    1.000
    C1164    C        0.05847    0.77133    0.86853    1.000
    C1165    C        0.03317    0.74763    0.88763    1.000
    H905     H        0.99607    0.73563    0.88963    1.000
    C1166    C        0.06357    0.74233    0.90343    1.000
    C1167    C        0.11777    0.75713    0.90083    1.000
    C1168    C        0.02697    0.77823    0.84903    1.000
    C1169    C        0.13837    0.69423    0.91133    1.000
    H906     H        0.10567    0.66653    0.91803    1.000
    H907     H        0.16967    0.69293    0.91653    1.000
    H908     H        0.13527    0.68763    0.89653    1.000
    O605     O        0.23667    0.71133    0.94653    1.000
    C1170    C        0.03457    0.71353    0.92453    1.000
    H909     H        0.99727    0.70693    0.92393    1.000
    H910     H        0.03197    0.67773    0.92473    1.000
    O606     O        0.52967    0.17433    0.13063    1.000
    C1171    C        0.05857    0.74083    0.94473    1.000
    C1172    C        0.06977    0.71423    0.95893    1.000
    H911     H        0.06377    0.67923    0.95603    1.000
    C1173    C        0.08997    0.73723    0.97773    1.000
    C1174    C        0.10377    0.79613    0.97803    1.000
    H912     H        0.12047    0.81383    0.99043    1.000
    O607     O        0.50037    0.93443    0.96073    1.000
    C1175    C        0.09787    0.82713    0.96533    1.000
    O608     O        0.51007    0.06673    0.98883    1.000
    C1176    C        0.07017    0.79753    0.94723    1.000
    O609     O        0.52167    0.05723    0.99053    1.000
    C1177    C        0.10017    0.70323    0.99363    1.000
    O610     O        0.43587    0.05643    0.94355    1.000
    C1178    C        0.00837    0.81893    0.93743    1.000
    H913     H        0.98177    0.79503    0.92743    1.000
    H914     H        0.01087    0.85433    0.93703    1.000
    H915     H        0.99717    0.80353    0.95113    1.000
    O611     O        0.40867    0.10363    0.92353    1.000
    C1179    C        0.11517    0.88213    0.97123    1.000
    H916     H        0.13687    0.89063    0.98383    1.000
    H917     H        0.08307    0.88513    0.97433    1.000
    O612     O        0.43667    0.13833    0.92303    1.000
    C1180    C        0.15007    0.92573    0.95413    1.000
    O613     O        0.26567    0.07303    0.00481    1.000
    C1181    C        0.13817    0.96623    0.94463    1.000
    H918     H        0.10607    0.96583    0.94853    1.000
    O614     O        0.10597    0.12493    0.00243    1.000
    C1182    C        0.16907    0.00153    0.93143    1.000
    O615     O        0.13047    0.18813    0.02443    1.000
    C1183    C        0.20947    0.00223    0.92573    1.000
    H919     H        0.23067    0.02823    0.91563    1.000
    O616     O        0.14947    0.20613    0.02223    1.000
    C1184    C        0.22947    0.96443    0.93333    1.000
    O617     O        0.35057    0.22243    0.97361    1.000
    C1185    C        0.19957    0.92933    0.94823    1.000
    O618     O        0.55577    0.40743    0.98133    1.000
    C1186    C        0.15307    0.04593    0.92293    1.000
    O619     O        0.59907    0.37683    0.00453    1.000
    C1187    C        0.25157    0.92563    0.97393    1.000
    H920     H        0.27677    0.96273    0.96983    1.000
    H921     H        0.27177    0.90793    0.97803    1.000
    H922     H        0.22977    0.92573    0.98543    1.000
    O620     O        0.35337    0.23783    0.03671    1.000
    C1188    C        0.28217    0.97063    0.92513    1.000
    H923     H        0.30997    0.98743    0.93593    1.000
    H924     H        0.29397    0.99573    0.91333    1.000
    O621     O        0.31837    0.10393    0.10503    1.000
    C1189    C        0.34397    0.06413    0.99433    1.000
    O622     O        0.25987    0.02613    0.08853    1.000
    C1190    C        0.37747    0.06503    0.97833    1.000
    H925     H        0.40267    0.05353    0.98093    1.000
    O623     O        0.43007    0.15723    0.01646    1.000
    C1191    C        0.37447    0.08283    0.95823    1.000
    C1192    C        0.33517    0.10023    0.95413    1.000
    H926     H        0.33327    0.11263    0.94093    1.000
    C1193    C        0.30027    0.09883    0.96952    1.000
    O624     O        0.19447    0.18553    0.05813    1.000
    C1194    C        0.30387    0.07813    0.98953    1.000
    O625     O        0.21817    0.21093    0.05503    1.000
    C1195    C        0.40937    0.08023    0.94043    1.000
    C1196    C        0.21647    0.02183    0.00413    1.000
    H927     H        0.22417    0.99303    0.00733    1.000
    H928     H        0.19107    0.02163    0.01423    1.000
    H929     H        0.20067    0.01623    0.99043    1.000
    O626     O        0.57217    0.26733    0.98953    1.000
    C1197    C        0.25677    0.11463    0.96513    1.000
    H930     H        0.22097    0.08163    0.96573    1.000
    H931     H        0.26187    0.12863    0.95093    1.000
    O627     O        0.57087    0.28033    0.98333    1.000
    C1198    C        0.25667    0.15683    0.97959    1.000
    O628     O        0.51797    0.17003    0.96013    1.000
    C1199    C        0.20687    0.14433    0.98843    1.000
    H932     H        0.17577    0.11073    0.98543    1.000
    O629     O        0.51297    0.15393    0.96663    1.000
    C1200    C        0.20227    0.18193    0.00219    1.000
    C1201    C        0.24987    0.23143    0.00653    1.000
    H933     H        0.24777    0.25633    0.01543    1.000
    C1202    C        0.29897    0.24423    0.99803    1.000
    C1203    C        0.30347    0.20903    0.98378    1.000
    C1204    C        0.14317    0.16273    0.01013    1.000
    C1205    C        0.35407    0.24983    0.95393    1.000
    H934     H        0.34647    0.27913    0.95633    1.000
    H935     H        0.39027    0.26443    0.94823    1.000
    H936     H        0.32757    0.22383    0.94433    1.000
    C1206    C        0.34907    0.29953    0.00293    1.000
    H937     H        0.35777    0.32243    0.99053    1.000
    H938     H        0.33907    0.31693    0.01383    1.000
    C1207    C        0.40187    0.30003    0.00983    1.000
    C1208    C        0.45307    0.33343    0.00093    1.000
    H939     H        0.45467    0.35483    0.98963    1.000
    C1209    C        0.50087    0.33753    0.00723    1.000
    C1210    C        0.49907    0.30433    0.02203    1.000
    H940     H        0.53117    0.30453    0.02583    1.000
    C1211    C        0.44687    0.26633    0.03283    1.000
    C1212    C        0.40137    0.26773    0.02623    1.000
    C1213    C        0.55777    0.37983    0.99473    1.000
    C1214    C        0.34677    0.26583    0.05473    1.000
    H941     H        0.36627    0.30473    0.05233    1.000
    H942     H        0.30847    0.25343    0.05673    1.000
    H943     H        0.36107    0.25753    0.06693    1.000
    C1215    C        0.44697    0.23303    0.05073    1.000
    H944     H        0.48297    0.23633    0.05153    1.000
    H945     H        0.44187    0.24883    0.06343    1.000
    C1216    C        0.40437    0.17273    0.05029    1.000
    C1217    C        0.37207    0.14953    0.06770    1.000
    H946     H        0.37757    0.17213    0.07913    1.000
    C1218    C        0.33167    0.09413    0.06933    1.000
    Rb102    Rb       0.45025    0.97569    0.96171    1.000
    C1219    C        0.32497    0.06183    0.05192    1.000
    H947     H        0.29787    0.02493    0.05213    1.000
    C1220    C        0.35737    0.08263    0.03408    1.000
    C1221    C        0.39427    0.13573    0.03373    1.000
    C1222    C        0.30327    0.07643    0.08853    1.000
    C1223    C        0.48047    0.15323    0.01763    1.000
    H948     H        0.47107    0.11553    0.01633    1.000
    H949     H        0.50497    0.17443    0.00653    1.000
    H950     H        0.49817    0.16733    0.03083    1.000
    C1224    C        0.34847    0.04503    0.01523    1.000
    H951     H        0.31527    0.01033    0.01773    1.000
    H952     H        0.37877    0.03773    0.01493    1.000
    Rb103    Rb       0.12057    0.55281    0.30923    1.000
    O630     O        0.05983    0.20667    0.27377    1.000
    C1225    C        0.91203    0.21947    0.23531    1.000
    Rb104    Rb       0.92127    0.46589    0.37329    1.000
    O631     O        0.01643    0.13177    0.25987    1.000
    C1226    C        0.94673    0.25077    0.25137    1.000
    Rb105    Rb       0.87823    0.12600    0.28640    1.000
    O632     O        0.87943    0.23667    0.22455    1.000
    C1227    C        0.97893    0.23577    0.25967    1.000
    H953     H        0.00233    0.25787    0.27027    1.000
    Rb106    Rb       0.76999    0.22810    0.22824    1.000
    O633     O        0.71883    0.13127    0.16717    1.000
    C1228    C        0.98143    0.18677    0.25387    1.000
    Rb107    Rb       0.10573    0.29417    0.30045    1.000
    O634     O        0.64383    0.09427    0.18727    1.000
    C1229    C        0.94473    0.15547    0.23798    1.000
    H954     H        0.94303    0.12297    0.23367    1.000
    O635     O        0.81153    0.08097    0.24876    1.000
    C1230    C        0.91003    0.17237    0.22809    1.000
    O636     O        0.75983    0.99017    0.32427    1.000
    C1231    C        0.01953    0.17277    0.26317    1.000
    O637     O        0.79183    0.07137    0.34377    1.000
    C1232    C        0.90783    0.27357    0.20737    1.000
    H955     H        0.92883    0.31047    0.21257    1.000
    H956     H        0.88153    0.27157    0.19737    1.000
    H957     H        0.93203    0.26327    0.20087    1.000
    O638     O        0.72803    0.15827    0.26597    1.000
    C1233    C        0.87003    0.13377    0.21167    1.000
    H958     H        0.88143    0.15147    0.19817    1.000
    H959     H        0.87293    0.10087    0.21117    1.000
    O639     O        0.77683    0.37307    0.26377    1.000
    C1234    C        0.81083    0.11697    0.21487    1.000
    O640     O        0.84483    0.41077    0.24247    1.000
    C1235    C        0.78233    0.12247    0.19977    1.000
    H960     H        0.79993    0.13857    0.18737    1.000
    O641     O        0.88393    0.23047    0.29051    1.000
    C1236    C        0.72513    0.10467    0.20187    1.000
    C1237    C        0.69983    0.08097    0.22097    1.000
    H961     H        0.66273    0.06897    0.22297    1.000
    C1238    C        0.73023    0.07567    0.23677    1.000
    C1239    C        0.78443    0.09047    0.23417    1.000
    C1240    C        0.69363    0.11157    0.18237    1.000
    C1241    C        0.80503    0.02757    0.24467    1.000
    H962     H        0.77233    0.99987    0.25137    1.000
    H963     H        0.83633    0.02627    0.24987    1.000
    H964     H        0.80193    0.02097    0.22987    1.000
    O642     O        0.90333    0.04467    0.27987    1.000
    C1242    C        0.70123    0.04687    0.25787    1.000
    H965     H        0.66393    0.04027    0.25727    1.000
    H966     H        0.69863    0.01107    0.25807    1.000
    O643     O        0.19633    0.50767    0.46397    1.000
    C1243    C        0.72523    0.07417    0.27807    1.000
    C1244    C        0.73643    0.04757    0.29227    1.000
    H967     H        0.73043    0.01257    0.28937    1.000
    C1245    C        0.75663    0.07057    0.31107    1.000
    C1246    C        0.77043    0.12947    0.31137    1.000
    H968     H        0.78713    0.14717    0.32377    1.000
    O644     O        0.16703    0.26777    0.29407    1.000
    C1247    C        0.76453    0.16047    0.29867    1.000
    O645     O        0.17673    0.40007    0.32217    1.000
    C1248    C        0.73683    0.13087    0.28057    1.000
    O646     O        0.18833    0.39057    0.32387    1.000
    C1249    C        0.76683    0.03657    0.32697    1.000
    O647     O        0.10253    0.38977    0.27689    1.000
    C1250    C        0.67503    0.15227    0.27077    1.000
    H969     H        0.64843    0.12837    0.26077    1.000
    H970     H        0.67753    0.18767    0.27037    1.000
    H971     H        0.66383    0.13687    0.28447    1.000
    O648     O        0.07533    0.43697    0.25687    1.000
    C1251    C        0.78183    0.21547    0.30457    1.000
    H972     H        0.80353    0.22397    0.31717    1.000
    H973     H        0.74973    0.21847    0.30767    1.000
    O649     O        0.10333    0.47167    0.25637    1.000
    C1252    C        0.81673    0.25907    0.28747    1.000
    O650     O        0.93233    0.40637    0.33815    1.000
    C1253    C        0.80483    0.29957    0.27797    1.000
    H974     H        0.77273    0.29917    0.28187    1.000
    O651     O        0.77263    0.45827    0.33577    1.000
    C1254    C        0.83573    0.33487    0.26477    1.000
    O652     O        0.79713    0.52147    0.35777    1.000
    C1255    C        0.87613    0.33557    0.25907    1.000
    H975     H        0.89733    0.36157    0.24897    1.000
    O653     O        0.81613    0.53947    0.35557    1.000
    C1256    C        0.89613    0.29777    0.26667    1.000
    O654     O        0.01723    0.55577    0.30695    1.000
    C1257    C        0.86623    0.26267    0.28157    1.000
    O655     O        0.22243    0.74077    0.31467    1.000
    C1258    C        0.81973    0.37927    0.25627    1.000
    O656     O        0.26573    0.71017    0.33787    1.000
    C1259    C        0.91823    0.25897    0.30727    1.000
    H976     H        0.94343    0.29607    0.30317    1.000
    H977     H        0.93843    0.24127    0.31137    1.000
    H978     H        0.89643    0.25907    0.31877    1.000
    O657     O        0.02003    0.57117    0.37005    1.000
    C1260    C        0.94883    0.30397    0.25847    1.000
    H979     H        0.97663    0.32077    0.26927    1.000
    H980     H        0.96063    0.32907    0.24667    1.000
    O658     O        0.98503    0.43727    0.43837    1.000
    C1261    C        0.01063    0.39747    0.32767    1.000
    O659     O        0.92653    0.35947    0.42187    1.000
    C1262    C        0.04413    0.39837    0.31167    1.000
    H981     H        0.06933    0.38687    0.31427    1.000
    O660     O        0.09673    0.49057    0.34980    1.000
    C1263    C        0.04113    0.41617    0.29157    1.000
    C1264    C        0.00183    0.43357    0.28747    1.000
    H982     H        0.99993    0.44597    0.27427    1.000
    C1265    C        0.96693    0.43217    0.30286    1.000
    O661     O        0.86113    0.51887    0.39147    1.000
    C1266    C        0.97053    0.41147    0.32287    1.000
    O662     O        0.88483    0.54427    0.38837    1.000
    C1267    C        0.07603    0.41357    0.27377    1.000
    C1268    C        0.88313    0.35517    0.33747    1.000
    H983     H        0.89083    0.32637    0.34067    1.000
    H984     H        0.85773    0.35497    0.34757    1.000
    H985     H        0.86733    0.34957    0.32377    1.000
    O663     O        0.23883    0.60067    0.32287    1.000
    C1269    C        0.92343    0.44797    0.29847    1.000
    H986     H        0.88763    0.41497    0.29907    1.000
    H987     H        0.92853    0.46197    0.28427    1.000
    O664     O        0.23753    0.61367    0.31667    1.000
    C1270    C        0.92333    0.49017    0.31293    1.000
    O665     O        0.18463    0.50337    0.29347    1.000
    C1271    C        0.87353    0.47767    0.32177    1.000
    H988     H        0.84243    0.44407    0.31877    1.000
    O666     O        0.17963    0.48727    0.29997    1.000
    C1272    C        0.86893    0.51527    0.33553    1.000
    C1273    C        0.91653    0.56477    0.33987    1.000
    H989     H        0.91443    0.58967    0.34877    1.000
    C1274    C        0.96563    0.57757    0.33137    1.000
    C1275    C        0.97013    0.54237    0.31712    1.000
    C1276    C        0.80983    0.49607    0.34347    1.000
    C1277    C        0.02073    0.58317    0.28727    1.000
    H990     H        0.01313    0.61247    0.28967    1.000
    H991     H        0.05693    0.59777    0.28157    1.000
    H992     H        0.99423    0.55717    0.27767    1.000
    C1278    C        0.01573    0.63287    0.33627    1.000
    H993     H        0.02443    0.65577    0.32387    1.000
    H994     H        0.00573    0.65027    0.34717    1.000
    C1279    C        0.06853    0.63337    0.34317    1.000
    C1280    C        0.11973    0.66677    0.33427    1.000
    H995     H        0.12133    0.68817    0.32297    1.000
    C1281    C        0.16753    0.67087    0.34057    1.000
    C1282    C        0.16573    0.63767    0.35537    1.000
    H996     H        0.19783    0.63787    0.35917    1.000
    C1283    C        0.11353    0.59967    0.36617    1.000
    C1284    C        0.06803    0.60107    0.35957    1.000
    C1285    C        0.22443    0.71317    0.32807    1.000
    C1286    C        0.01343    0.59917    0.38807    1.000
    H997     H        0.03293    0.63807    0.38567    1.000
    H998     H        0.97513    0.58677    0.39007    1.000
    H999     H        0.02773    0.59087    0.40027    1.000
    C1287    C        0.11363    0.56637    0.38407    1.000
    H1000    H        0.14963    0.56967    0.38487    1.000
    H1001    H        0.10853    0.58217    0.39677    1.000
    C1288    C        0.07103    0.50607    0.38363    1.000
    C1289    C        0.03873    0.48287    0.40104    1.000
    H1002    H        0.04423    0.50547    0.41247    1.000
    C1290    C        0.99833    0.42747    0.40267    1.000
    Rb108    Rb       0.11691    0.30903    0.29505    1.000
    C1291    C        0.99163    0.39517    0.38526    1.000
    H1003    H        0.96453    0.35827    0.38547    1.000
    C1292    C        0.02403    0.41597    0.36742    1.000
    C1293    C        0.06093    0.46907    0.36707    1.000
    C1294    C        0.96993    0.40977    0.42187    1.000
    C1295    C        0.14713    0.48657    0.35097    1.000
    H1004    H        0.13773    0.44887    0.34967    1.000
    H1005    H        0.17163    0.50777    0.33987    1.000
    H1006    H        0.16483    0.50067    0.36417    1.000
    C1296    C        0.01513    0.37837    0.34857    1.000
    H1007    H        0.98193    0.34367    0.35107    1.000
    H1008    H        0.04543    0.37107    0.34827    1.000
