# CIF file generated by openbabel 3.1.0, see https://openbabel.org
data_I
_chemical_name_common 'image0'
_cell_length_a 28.012
_cell_length_b 13.7873
_cell_length_c 45.388
_cell_angle_alpha 90
_cell_angle_beta 90
_cell_angle_gamma 90
_space_group_name_H-M_alt 'P 1'
_space_group_name_Hall 'P 1'
loop_
    _symmetry_equiv_pos_as_xyz
    x,y,z
loop_
    _atom_site_label
    _atom_site_type_symbol
    _atom_site_fract_x
    _atom_site_fract_y
    _atom_site_fract_z
    _atom_site_occupancy
    Zn1      Zn       0.75855    0.14902    0.31193    1.000
    Zn2      Zn       0.94373    0.15501    0.57251    1.000
    Zn3      Zn       0.97287    0.35557    0.41418    1.000
    I1       I        0.00974    0.07314    0.60115    1.000
    I2       I        0.99062    0.28193    0.46452    1.000
    I3       I        0.80195    0.31041    0.30570    1.000
    I4       I        0.93805    0.33633    0.56141    1.000
    I5       I        0.92404    0.27347    0.37454    1.000
    I6       I        0.67112    0.14545    0.32623    1.000
    C1       C        0.92340    0.53820    0.39882    1.000
    H1       H        0.92060    0.50650    0.38030    1.000
    C2       C        0.90610    0.63130    0.40168    1.000
    H2       H        0.89180    0.66310    0.38540    1.000
    C3       C        0.94630    0.53570    0.44718    1.000
    H3       H        0.95950    0.50150    0.46340    1.000
    C4       C        0.93050    0.62960    0.45158    1.000
    H4       H        0.93390    0.65990    0.47030    1.000
    C5       C        0.90990    0.67810    0.42839    1.000
    C6       C        0.89440    0.78050    0.43183    1.000
    C7       C        0.94680    0.99130    0.53044    1.000
    H5       H        0.96520    0.96340    0.54580    1.000
    C8       C        0.93560    0.93400    0.50612    1.000
    H6       H        0.94610    0.86870    0.50480    1.000
    C9       C        0.90780    0.12340    0.51123    1.000
    H7       H        0.89830    0.18930    0.51310    1.000
    C10      C        0.89540    0.07360    0.48659    1.000
    H8       H        0.87790    0.10510    0.47140    1.000
    C11      C        0.90820    0.97620    0.48349    1.000
    C12      C        0.89460    0.91990    0.45743    1.000
    C13      C        0.81800    0.11410    0.36374    1.000
    H9       H        0.81840    0.18300    0.36370    1.000
    C14      C        0.83980    0.06650    0.38663    1.000
    H10      H        0.85460    0.10190    0.40210    1.000
    C15      C        0.79680    0.97200    0.34201    1.000
    H11      H        0.78150    0.93790    0.32650    1.000
    C16      C        0.81860    0.91900    0.36413    1.000
    H12      H        0.81860    0.85010    0.36350    1.000
    C17      C        0.84010    0.96670    0.38681    1.000
    C18      C        0.86200    0.91500    0.41178    1.000
    C19      C        0.73070    0.03390    0.25972    1.000
    H13      H        0.70080    0.03150    0.26960    1.000
    C20      C        0.73500    0.99470    0.23128    1.000
    H14      H        0.70810    0.96600    0.22190    1.000
    C21      C        0.81010    0.07650    0.25965    1.000
    H15      H        0.83660    0.10490    0.26950    1.000
    C22      C        0.81640    0.03830    0.23138    1.000
    H16      H        0.84680    0.03990    0.22210    1.000
    C23      C        0.77750    0.99800    0.21735    1.000
    C24      C        0.78220    0.96340    0.18634    1.000
    C25      C        0.95870    0.89850    0.13469    1.000
    H17      H        0.98710    0.89640    0.14610    1.000
    C26      C        0.91580    0.91280    0.14938    1.000
    H18      H        0.91490    0.92170    0.17010    1.000
    C27      C        0.92220    0.89040    0.08971    1.000
    H19      H        0.92430    0.88370    0.06890    1.000
    C28      C        0.87800    0.90270    0.10244    1.000
    H20      H        0.85020    0.90360    0.09050    1.000
    C29      C        0.87420    0.91370    0.13266    1.000
    C30      C        0.82670    0.92670    0.14681    1.000
    C31      C        0.66120    0.86780    0.08218    1.000
    H21      H        0.66220    0.84810    0.06210    1.000
    C32      C        0.70390    0.88270    0.09676    1.000
    H22      H        0.73350    0.87440    0.08690    1.000
    C33      C        0.61760    0.90780    0.12322    1.000
    H23      H        0.58750    0.91740    0.13240    1.000
    C34      C        0.65820    0.92310    0.13937    1.000
    H24      H        0.65590    0.94240    0.15940    1.000
    C35      C        0.70240    0.91040    0.12642    1.000
    C36      C        0.74680    0.92460    0.14329    1.000
    N1       N        0.94380    0.49090    0.42110    1.000
    N2       N        0.93300    0.08260    0.53315    1.000
    N3       N        0.79630    0.06870    0.34152    1.000
    N4       N        0.90670    0.82610    0.45639    1.000
    N5       N        0.87280    0.96840    0.43555    1.000
    N6       N        0.87120    0.82020    0.40890    1.000
    N7       N        0.76790    0.07420    0.27303    1.000
    N8       N        0.96240    0.88750    0.10572    1.000
    N9       N        0.61860    0.87970    0.09487    1.000
    N10      N        0.82600    0.95340    0.17522    1.000
    N11      N        0.78840    0.91230    0.12991    1.000
    N12      N        0.74160    0.95030    0.17186    1.000
    Zn4      Zn       0.74145    0.85098    0.81193    1.000
    Zn5      Zn       0.55627    0.84499    0.07251    1.000
    Zn6      Zn       0.52713    0.64443    0.91418    1.000
    I7       I        0.49026    0.92686    0.10115    1.000
    I8       I        0.50938    0.71807    0.96452    1.000
    I9       I        0.69805    0.68959    0.80570    1.000
    I10      I        0.56195    0.66367    0.06141    1.000
    I11      I        0.57596    0.72653    0.87454    1.000
    I12      I        0.82888    0.85455    0.82623    1.000
    C37      C        0.57660    0.46180    0.89882    1.000
    H25      H        0.57940    0.49350    0.88030    1.000
    C38      C        0.59390    0.36870    0.90168    1.000
    H26      H        0.60820    0.33690    0.88540    1.000
    C39      C        0.55370    0.46430    0.94718    1.000
    H27      H        0.54050    0.49850    0.96340    1.000
    C40      C        0.56950    0.37040    0.95158    1.000
    H28      H        0.56610    0.34010    0.97030    1.000
    C41      C        0.59010    0.32190    0.92839    1.000
    C42      C        0.60560    0.21950    0.93183    1.000
    C43      C        0.55320    0.00870    0.03044    1.000
    H29      H        0.53480    0.03660    0.04580    1.000
    C44      C        0.56440    0.06600    0.00612    1.000
    H30      H        0.55390    0.13130    0.00480    1.000
    C45      C        0.59220    0.87660    0.01123    1.000
    H31      H        0.60170    0.81070    0.01310    1.000
    C46      C        0.60460    0.92640    0.98659    1.000
    H32      H        0.62210    0.89490    0.97140    1.000
    C47      C        0.59180    0.02380    0.98349    1.000
    C48      C        0.60540    0.08010    0.95743    1.000
    C49      C        0.68200    0.88590    0.86374    1.000
    H33      H        0.68160    0.81700    0.86370    1.000
    C50      C        0.66020    0.93350    0.88663    1.000
    H34      H        0.64540    0.89810    0.90210    1.000
    C51      C        0.70320    0.02800    0.84201    1.000
    H35      H        0.71850    0.06210    0.82650    1.000
    C52      C        0.68140    0.08100    0.86413    1.000
    H36      H        0.68140    0.14990    0.86350    1.000
    C53      C        0.65990    0.03330    0.88681    1.000
    C54      C        0.63800    0.08500    0.91178    1.000
    C55      C        0.76930    0.96610    0.75972    1.000
    H37      H        0.79920    0.96850    0.76960    1.000
    C56      C        0.76500    0.00530    0.73128    1.000
    H38      H        0.79190    0.03400    0.72190    1.000
    C57      C        0.68990    0.92350    0.75965    1.000
    H39      H        0.66340    0.89510    0.76950    1.000
    C58      C        0.68360    0.96170    0.73138    1.000
    H40      H        0.65320    0.96010    0.72210    1.000
    C59      C        0.72250    0.00200    0.71735    1.000
    C60      C        0.71780    0.03660    0.68634    1.000
    C61      C        0.54130    0.10150    0.63469    1.000
    H41      H        0.51290    0.10360    0.64610    1.000
    C62      C        0.58420    0.08720    0.64938    1.000
    H42      H        0.58510    0.07830    0.67010    1.000
    C63      C        0.57780    0.10960    0.58971    1.000
    H43      H        0.57570    0.11630    0.56890    1.000
    C64      C        0.62200    0.09730    0.60244    1.000
    H44      H        0.64980    0.09640    0.59050    1.000
    C65      C        0.62580    0.08630    0.63266    1.000
    C66      C        0.67330    0.07330    0.64681    1.000
    C67      C        0.83880    0.13220    0.58218    1.000
    H45      H        0.83780    0.15190    0.56210    1.000
    C68      C        0.79610    0.11730    0.59676    1.000
    H46      H        0.76650    0.12560    0.58690    1.000
    C69      C        0.88240    0.09220    0.62322    1.000
    H47      H        0.91250    0.08260    0.63240    1.000
    C70      C        0.84180    0.07690    0.63937    1.000
    H48      H        0.84410    0.05760    0.65940    1.000
    C71      C        0.79760    0.08960    0.62642    1.000
    C72      C        0.75320    0.07540    0.64329    1.000
    N13      N        0.55620    0.50910    0.92110    1.000
    N14      N        0.56700    0.91740    0.03315    1.000
    N15      N        0.70370    0.93130    0.84152    1.000
    N16      N        0.59330    0.17390    0.95639    1.000
    N17      N        0.62720    0.03160    0.93555    1.000
    N18      N        0.62880    0.17980    0.90890    1.000
    N19      N        0.73210    0.92580    0.77303    1.000
    N20      N        0.53760    0.11250    0.60572    1.000
    N21      N        0.88140    0.12030    0.59487    1.000
    N22      N        0.67400    0.04660    0.67522    1.000
    N23      N        0.71160    0.08770    0.62991    1.000
    N24      N        0.75840    0.04970    0.67186    1.000
    Zn7      Zn       0.24145    0.64902    0.18807    1.000
    Zn8      Zn       0.05627    0.65501    0.92749    1.000
    Zn9      Zn       0.02713    0.85557    0.08582    1.000
    I13      I        0.99026    0.57314    0.89885    1.000
    I14      I        0.00938    0.78193    0.03548    1.000
    I15      I        0.19805    0.81041    0.19430    1.000
    I16      I        0.06195    0.83633    0.93859    1.000
    I17      I        0.07596    0.77347    0.12546    1.000
    I18      I        0.32888    0.64545    0.17377    1.000
    C73      C        0.07660    0.03820    0.10118    1.000
    H49      H        0.07940    0.00650    0.11970    1.000
    C74      C        0.09390    0.13130    0.09832    1.000
    H50      H        0.10820    0.16310    0.11460    1.000
    C75      C        0.05370    0.03570    0.05282    1.000
    H51      H        0.04050    0.00150    0.03660    1.000
    C76      C        0.06950    0.12960    0.04842    1.000
    H52      H        0.06610    0.15990    0.02970    1.000
    C77      C        0.09010    0.17810    0.07161    1.000
    C78      C        0.10560    0.28050    0.06817    1.000
    C79      C        0.05320    0.49130    0.96956    1.000
    H53      H        0.03480    0.46340    0.95420    1.000
    C80      C        0.06440    0.43400    0.99388    1.000
    H54      H        0.05390    0.36870    0.99520    1.000
    C81      C        0.09220    0.62340    0.98877    1.000
    H55      H        0.10170    0.68930    0.98690    1.000
    C82      C        0.10460    0.57360    0.01341    1.000
    H56      H        0.12210    0.60510    0.02860    1.000
    C83      C        0.09180    0.47620    0.01651    1.000
    C84      C        0.10540    0.41990    0.04257    1.000
    C85      C        0.18200    0.61410    0.13626    1.000
    H57      H        0.18160    0.68300    0.13630    1.000
    C86      C        0.16020    0.56650    0.11337    1.000
    H58      H        0.14540    0.60190    0.09790    1.000
    C87      C        0.20320    0.47200    0.15799    1.000
    H59      H        0.21850    0.43790    0.17350    1.000
    C88      C        0.18140    0.41900    0.13587    1.000
    H60      H        0.18140    0.35010    0.13650    1.000
    C89      C        0.15990    0.46670    0.11319    1.000
    C90      C        0.13800    0.41500    0.08822    1.000
    C91      C        0.26930    0.53390    0.24028    1.000
    H61      H        0.29920    0.53150    0.23040    1.000
    C92      C        0.26500    0.49470    0.26872    1.000
    H62      H        0.29190    0.46600    0.27810    1.000
    C93      C        0.18990    0.57650    0.24035    1.000
    H63      H        0.16340    0.60490    0.23050    1.000
    C94      C        0.18360    0.53830    0.26862    1.000
    H64      H        0.15320    0.53990    0.27790    1.000
    C95      C        0.22250    0.49800    0.28265    1.000
    C96      C        0.21780    0.46340    0.31366    1.000
    C97      C        0.04130    0.39850    0.36531    1.000
    H65      H        0.01290    0.39640    0.35390    1.000
    C98      C        0.08420    0.41280    0.35062    1.000
    H66      H        0.08510    0.42170    0.32990    1.000
    C99      C        0.07780    0.39040    0.41029    1.000
    H67      H        0.07570    0.38370    0.43110    1.000
    C100     C        0.12200    0.40270    0.39756    1.000
    H68      H        0.14980    0.40360    0.40950    1.000
    C101     C        0.12580    0.41370    0.36734    1.000
    C102     C        0.17330    0.42670    0.35319    1.000
    C103     C        0.33880    0.36780    0.41782    1.000
    H69      H        0.33780    0.34810    0.43790    1.000
    C104     C        0.29610    0.38270    0.40324    1.000
    H70      H        0.26650    0.37440    0.41310    1.000
    C105     C        0.38240    0.40780    0.37678    1.000
    H71      H        0.41250    0.41740    0.36760    1.000
    C106     C        0.34180    0.42310    0.36063    1.000
    H72      H        0.34410    0.44240    0.34060    1.000
    C107     C        0.29760    0.41040    0.37358    1.000
    C108     C        0.25320    0.42460    0.35671    1.000
    N25      N        0.05620    0.99090    0.07890    1.000
    N26      N        0.06700    0.58260    0.96685    1.000
    N27      N        0.20370    0.56870    0.15848    1.000
    N28      N        0.09330    0.32610    0.04361    1.000
    N29      N        0.12720    0.46840    0.06445    1.000
    N30      N        0.12880    0.32020    0.09110    1.000
    N31      N        0.23210    0.57420    0.22697    1.000
    N32      N        0.03760    0.38750    0.39428    1.000
    N33      N        0.38140    0.37970    0.40513    1.000
    N34      N        0.17400    0.45340    0.32478    1.000
    N35      N        0.21160    0.41230    0.37009    1.000
    N36      N        0.25840    0.45030    0.32814    1.000
    Zn10     Zn       0.25855    0.35098    0.68807    1.000
    Zn11     Zn       0.44373    0.34499    0.42749    1.000
    Zn12     Zn       0.47287    0.14443    0.58582    1.000
    I19      I        0.50974    0.42686    0.39885    1.000
    I20      I        0.49062    0.21807    0.53548    1.000
    I21      I        0.30195    0.18959    0.69430    1.000
    I22      I        0.43805    0.16367    0.43859    1.000
    I23      I        0.42404    0.22653    0.62546    1.000
    I24      I        0.17112    0.35455    0.67377    1.000
    C109     C        0.42340    0.96180    0.60118    1.000
    H73      H        0.42060    0.99350    0.61970    1.000
    C110     C        0.40610    0.86870    0.59832    1.000
    H74      H        0.39180    0.83690    0.61460    1.000
    C111     C        0.44630    0.96430    0.55282    1.000
    H75      H        0.45950    0.99850    0.53660    1.000
    C112     C        0.43050    0.87040    0.54842    1.000
    H76      H        0.43390    0.84010    0.52970    1.000
    C113     C        0.40990    0.82190    0.57161    1.000
    C114     C        0.39440    0.71950    0.56817    1.000
    C115     C        0.44680    0.50870    0.46956    1.000
    H77      H        0.46520    0.53660    0.45420    1.000
    C116     C        0.43560    0.56600    0.49388    1.000
    H78      H        0.44610    0.63130    0.49520    1.000
    C117     C        0.40780    0.37660    0.48877    1.000
    H79      H        0.39830    0.31070    0.48690    1.000
    C118     C        0.39540    0.42640    0.51341    1.000
    H80      H        0.37790    0.39490    0.52860    1.000
    C119     C        0.40820    0.52380    0.51651    1.000
    C120     C        0.39460    0.58010    0.54257    1.000
    C121     C        0.31800    0.38590    0.63626    1.000
    H81      H        0.31840    0.31700    0.63630    1.000
    C122     C        0.33980    0.43350    0.61337    1.000
    H82      H        0.35460    0.39810    0.59790    1.000
    C123     C        0.29680    0.52800    0.65799    1.000
    H83      H        0.28150    0.56210    0.67350    1.000
    C124     C        0.31860    0.58100    0.63587    1.000
    H84      H        0.31860    0.64990    0.63650    1.000
    C125     C        0.34010    0.53330    0.61319    1.000
    C126     C        0.36200    0.58500    0.58822    1.000
    C127     C        0.23070    0.46610    0.74028    1.000
    H85      H        0.20080    0.46850    0.73040    1.000
    C128     C        0.23500    0.50530    0.76872    1.000
    H86      H        0.20810    0.53400    0.77810    1.000
    C129     C        0.31010    0.42350    0.74035    1.000
    H87      H        0.33660    0.39510    0.73050    1.000
    C130     C        0.31640    0.46170    0.76862    1.000
    H88      H        0.34680    0.46010    0.77790    1.000
    C131     C        0.27750    0.50200    0.78265    1.000
    C132     C        0.28220    0.53660    0.81366    1.000
    C133     C        0.45870    0.60150    0.86531    1.000
    H89      H        0.48710    0.60360    0.85390    1.000
    C134     C        0.41580    0.58720    0.85062    1.000
    H90      H        0.41490    0.57830    0.82990    1.000
    C135     C        0.42220    0.60960    0.91029    1.000
    H91      H        0.42430    0.61630    0.93110    1.000
    C136     C        0.37800    0.59730    0.89756    1.000
    H92      H        0.35020    0.59640    0.90950    1.000
    C137     C        0.37420    0.58630    0.86734    1.000
    C138     C        0.32670    0.57330    0.85319    1.000
    C139     C        0.16120    0.63220    0.91782    1.000
    H93      H        0.16220    0.65190    0.93790    1.000
    C140     C        0.20390    0.61730    0.90324    1.000
    H94      H        0.23350    0.62560    0.91310    1.000
    C141     C        0.11760    0.59220    0.87678    1.000
    H95      H        0.08750    0.58260    0.86760    1.000
    C142     C        0.15820    0.57690    0.86063    1.000
    H96      H        0.15590    0.55760    0.84060    1.000
    C143     C        0.20240    0.58960    0.87358    1.000
    C144     C        0.24680    0.57540    0.85671    1.000
    N37      N        0.44380    0.00910    0.57890    1.000
    N38      N        0.43300    0.41740    0.46685    1.000
    N39      N        0.29630    0.43130    0.65848    1.000
    N40      N        0.40670    0.67390    0.54361    1.000
    N41      N        0.37280    0.53160    0.56445    1.000
    N42      N        0.37120    0.67980    0.59110    1.000
    N43      N        0.26790    0.42580    0.72697    1.000
    N44      N        0.46240    0.61250    0.89428    1.000
    N45      N        0.11860    0.62030    0.90513    1.000
    N46      N        0.32600    0.54660    0.82478    1.000
    N47      N        0.28840    0.58770    0.87009    1.000
    N48      N        0.24160    0.54970    0.82814    1.000
    Zn13     Zn       0.24145    0.85098    0.68807    1.000
    Zn14     Zn       0.05627    0.84499    0.42749    1.000
    Zn15     Zn       0.02713    0.64443    0.58582    1.000
    I25      I        0.99026    0.92686    0.39885    1.000
    I26      I        0.00938    0.71807    0.53548    1.000
    I27      I        0.19805    0.68959    0.69430    1.000
    I28      I        0.06195    0.66367    0.43859    1.000
    I29      I        0.07596    0.72653    0.62546    1.000
    I30      I        0.32888    0.85455    0.67377    1.000
    C145     C        0.07660    0.46180    0.60118    1.000
    H97      H        0.07940    0.49350    0.61970    1.000
    C146     C        0.09390    0.36870    0.59832    1.000
    H98      H        0.10820    0.33690    0.61460    1.000
    C147     C        0.05370    0.46430    0.55282    1.000
    H99      H        0.04050    0.49850    0.53660    1.000
    C148     C        0.06950    0.37040    0.54842    1.000
    H100     H        0.06610    0.34010    0.52970    1.000
    C149     C        0.09010    0.32190    0.57161    1.000
    C150     C        0.10560    0.21950    0.56817    1.000
    C151     C        0.05320    0.00870    0.46956    1.000
    H101     H        0.03480    0.03660    0.45420    1.000
    C152     C        0.06440    0.06600    0.49388    1.000
    H102     H        0.05390    0.13130    0.49520    1.000
    C153     C        0.09220    0.87660    0.48877    1.000
    H103     H        0.10170    0.81070    0.48690    1.000
    C154     C        0.10460    0.92640    0.51341    1.000
    H104     H        0.12210    0.89490    0.52860    1.000
    C155     C        0.09180    0.02380    0.51651    1.000
    C156     C        0.10540    0.08010    0.54257    1.000
    C157     C        0.18200    0.88590    0.63626    1.000
    H105     H        0.18160    0.81700    0.63630    1.000
    C158     C        0.16020    0.93350    0.61337    1.000
    H106     H        0.14540    0.89810    0.59790    1.000
    C159     C        0.20320    0.02800    0.65799    1.000
    H107     H        0.21850    0.06210    0.67350    1.000
    C160     C        0.18140    0.08100    0.63587    1.000
    H108     H        0.18140    0.14990    0.63650    1.000
    C161     C        0.15990    0.03330    0.61319    1.000
    C162     C        0.13800    0.08500    0.58822    1.000
    C163     C        0.26930    0.96610    0.74028    1.000
    H109     H        0.29920    0.96850    0.73040    1.000
    C164     C        0.26500    0.00530    0.76872    1.000
    H110     H        0.29190    0.03400    0.77810    1.000
    C165     C        0.18990    0.92350    0.74035    1.000
    H111     H        0.16340    0.89510    0.73050    1.000
    C166     C        0.18360    0.96170    0.76862    1.000
    H112     H        0.15320    0.96010    0.77790    1.000
    C167     C        0.22250    0.00200    0.78265    1.000
    C168     C        0.21780    0.03660    0.81366    1.000
    C169     C        0.04130    0.10150    0.86531    1.000
    H113     H        0.01290    0.10360    0.85390    1.000
    C170     C        0.08420    0.08720    0.85062    1.000
    H114     H        0.08510    0.07830    0.82990    1.000
    C171     C        0.07780    0.10960    0.91029    1.000
    H115     H        0.07570    0.11630    0.93110    1.000
    C172     C        0.12200    0.09730    0.89756    1.000
    H116     H        0.14980    0.09640    0.90950    1.000
    C173     C        0.12580    0.08630    0.86734    1.000
    C174     C        0.17330    0.07330    0.85319    1.000
    C175     C        0.33880    0.13220    0.91782    1.000
    H117     H        0.33780    0.15190    0.93790    1.000
    C176     C        0.29610    0.11730    0.90324    1.000
    H118     H        0.26650    0.12560    0.91310    1.000
    C177     C        0.38240    0.09220    0.87678    1.000
    H119     H        0.41250    0.08260    0.86760    1.000
    C178     C        0.34180    0.07690    0.86063    1.000
    H120     H        0.34410    0.05760    0.84060    1.000
    C179     C        0.29760    0.08960    0.87358    1.000
    C180     C        0.25320    0.07540    0.85671    1.000
    N49      N        0.05620    0.50910    0.57890    1.000
    N50      N        0.06700    0.91740    0.46685    1.000
    N51      N        0.20370    0.93130    0.65848    1.000
    N52      N        0.09330    0.17390    0.54361    1.000
    N53      N        0.12720    0.03160    0.56445    1.000
    N54      N        0.12880    0.17980    0.59110    1.000
    N55      N        0.23210    0.92580    0.72697    1.000
    N56      N        0.03760    0.11250    0.89428    1.000
    N57      N        0.38140    0.12030    0.90513    1.000
    N58      N        0.17400    0.04660    0.82478    1.000
    N59      N        0.21160    0.08770    0.87009    1.000
    N60      N        0.25840    0.04970    0.82814    1.000
    Zn16     Zn       0.25855    0.14902    0.18807    1.000
    Zn17     Zn       0.44373    0.15501    0.92749    1.000
    Zn18     Zn       0.47287    0.35557    0.08582    1.000
    I31      I        0.50974    0.07314    0.89885    1.000
    I32      I        0.49062    0.28193    0.03548    1.000
    I33      I        0.30195    0.31041    0.19430    1.000
    I34      I        0.43805    0.33633    0.93859    1.000
    I35      I        0.42404    0.27347    0.12546    1.000
    I36      I        0.17112    0.14545    0.17377    1.000
    C181     C        0.42340    0.53820    0.10118    1.000
    H121     H        0.42060    0.50650    0.11970    1.000
    C182     C        0.40610    0.63130    0.09832    1.000
    H122     H        0.39180    0.66310    0.11460    1.000
    C183     C        0.44630    0.53570    0.05282    1.000
    H123     H        0.45950    0.50150    0.03660    1.000
    C184     C        0.43050    0.62960    0.04842    1.000
    H124     H        0.43390    0.65990    0.02970    1.000
    C185     C        0.40990    0.67810    0.07161    1.000
    C186     C        0.39440    0.78050    0.06817    1.000
    C187     C        0.44680    0.99130    0.96956    1.000
    H125     H        0.46520    0.96340    0.95420    1.000
    C188     C        0.43560    0.93400    0.99388    1.000
    H126     H        0.44610    0.86870    0.99520    1.000
    C189     C        0.40780    0.12340    0.98877    1.000
    H127     H        0.39830    0.18930    0.98690    1.000
    C190     C        0.39540    0.07360    0.01341    1.000
    H128     H        0.37790    0.10510    0.02860    1.000
    C191     C        0.40820    0.97620    0.01651    1.000
    C192     C        0.39460    0.91990    0.04257    1.000
    C193     C        0.31800    0.11410    0.13626    1.000
    H129     H        0.31840    0.18300    0.13630    1.000
    C194     C        0.33980    0.06650    0.11337    1.000
    H130     H        0.35460    0.10190    0.09790    1.000
    C195     C        0.29680    0.97200    0.15799    1.000
    H131     H        0.28150    0.93790    0.17350    1.000
    C196     C        0.31860    0.91900    0.13587    1.000
    H132     H        0.31860    0.85010    0.13650    1.000
    C197     C        0.34010    0.96670    0.11319    1.000
    C198     C        0.36200    0.91500    0.08822    1.000
    C199     C        0.23070    0.03390    0.24028    1.000
    H133     H        0.20080    0.03150    0.23040    1.000
    C200     C        0.23500    0.99470    0.26872    1.000
    H134     H        0.20810    0.96600    0.27810    1.000
    C201     C        0.31010    0.07650    0.24035    1.000
    H135     H        0.33660    0.10490    0.23050    1.000
    C202     C        0.31640    0.03830    0.26862    1.000
    H136     H        0.34680    0.03990    0.27790    1.000
    C203     C        0.27750    0.99800    0.28265    1.000
    C204     C        0.28220    0.96340    0.31366    1.000
    C205     C        0.45870    0.89850    0.36531    1.000
    H137     H        0.48710    0.89640    0.35390    1.000
    C206     C        0.41580    0.91280    0.35062    1.000
    H138     H        0.41490    0.92170    0.32990    1.000
    C207     C        0.42220    0.89040    0.41029    1.000
    H139     H        0.42430    0.88370    0.43110    1.000
    C208     C        0.37800    0.90270    0.39756    1.000
    H140     H        0.35020    0.90360    0.40950    1.000
    C209     C        0.37420    0.91370    0.36734    1.000
    C210     C        0.32670    0.92670    0.35319    1.000
    C211     C        0.16120    0.86780    0.41782    1.000
    H141     H        0.16220    0.84810    0.43790    1.000
    C212     C        0.20390    0.88270    0.40324    1.000
    H142     H        0.23350    0.87440    0.41310    1.000
    C213     C        0.11760    0.90780    0.37678    1.000
    H143     H        0.08750    0.91740    0.36760    1.000
    C214     C        0.15820    0.92310    0.36063    1.000
    H144     H        0.15590    0.94240    0.34060    1.000
    C215     C        0.20240    0.91040    0.37358    1.000
    C216     C        0.24680    0.92460    0.35671    1.000
    N61      N        0.44380    0.49090    0.07890    1.000
    N62      N        0.43300    0.08260    0.96685    1.000
    N63      N        0.29630    0.06870    0.15848    1.000
    N64      N        0.40670    0.82610    0.04361    1.000
    N65      N        0.37280    0.96840    0.06445    1.000
    N66      N        0.37120    0.82020    0.09110    1.000
    N67      N        0.26790    0.07420    0.22697    1.000
    N68      N        0.46240    0.88750    0.39428    1.000
    N69      N        0.11860    0.87970    0.40513    1.000
    N70      N        0.32600    0.95340    0.32478    1.000
    N71      N        0.28840    0.91230    0.37009    1.000
    N72      N        0.24160    0.95030    0.32814    1.000
    Zn19     Zn       0.75855    0.35098    0.81193    1.000
    Zn20     Zn       0.94373    0.34499    0.07251    1.000
    Zn21     Zn       0.97287    0.14443    0.91418    1.000
    I37      I        0.00974    0.42686    0.10115    1.000
    I38      I        0.99062    0.21807    0.96452    1.000
    I39      I        0.80195    0.18959    0.80570    1.000
    I40      I        0.93805    0.16367    0.06141    1.000
    I41      I        0.92404    0.22653    0.87454    1.000
    I42      I        0.67112    0.35455    0.82623    1.000
    C217     C        0.92340    0.96180    0.89882    1.000
    H145     H        0.92060    0.99350    0.88030    1.000
    C218     C        0.90610    0.86870    0.90168    1.000
    H146     H        0.89180    0.83690    0.88540    1.000
    C219     C        0.94630    0.96430    0.94718    1.000
    H147     H        0.95950    0.99850    0.96340    1.000
    C220     C        0.93050    0.87040    0.95158    1.000
    H148     H        0.93390    0.84010    0.97030    1.000
    C221     C        0.90990    0.82190    0.92839    1.000
    C222     C        0.89440    0.71950    0.93183    1.000
    C223     C        0.94680    0.50870    0.03044    1.000
    H149     H        0.96520    0.53660    0.04580    1.000
    C224     C        0.93560    0.56600    0.00612    1.000
    H150     H        0.94610    0.63130    0.00480    1.000
    C225     C        0.90780    0.37660    0.01123    1.000
    H151     H        0.89830    0.31070    0.01310    1.000
    C226     C        0.89540    0.42640    0.98659    1.000
    H152     H        0.87790    0.39490    0.97140    1.000
    C227     C        0.90820    0.52380    0.98349    1.000
    C228     C        0.89460    0.58010    0.95743    1.000
    C229     C        0.81800    0.38590    0.86374    1.000
    H153     H        0.81840    0.31700    0.86370    1.000
    C230     C        0.83980    0.43350    0.88663    1.000
    H154     H        0.85460    0.39810    0.90210    1.000
    C231     C        0.79680    0.52800    0.84201    1.000
    H155     H        0.78150    0.56210    0.82650    1.000
    C232     C        0.81860    0.58100    0.86413    1.000
    H156     H        0.81860    0.64990    0.86350    1.000
    C233     C        0.84010    0.53330    0.88681    1.000
    C234     C        0.86200    0.58500    0.91178    1.000
    C235     C        0.73070    0.46610    0.75972    1.000
    H157     H        0.70080    0.46850    0.76960    1.000
    C236     C        0.73500    0.50530    0.73128    1.000
    H158     H        0.70810    0.53400    0.72190    1.000
    C237     C        0.81010    0.42350    0.75965    1.000
    H159     H        0.83660    0.39510    0.76950    1.000
    C238     C        0.81640    0.46170    0.73138    1.000
    H160     H        0.84680    0.46010    0.72210    1.000
    C239     C        0.77750    0.50200    0.71735    1.000
    C240     C        0.78220    0.53660    0.68634    1.000
    C241     C        0.95870    0.60150    0.63469    1.000
    H161     H        0.98710    0.60360    0.64610    1.000
    C242     C        0.91580    0.58720    0.64938    1.000
    H162     H        0.91490    0.57830    0.67010    1.000
    C243     C        0.92220    0.60960    0.58971    1.000
    H163     H        0.92430    0.61630    0.56890    1.000
    C244     C        0.87800    0.59730    0.60244    1.000
    H164     H        0.85020    0.59640    0.59050    1.000
    C245     C        0.87420    0.58630    0.63266    1.000
    C246     C        0.82670    0.57330    0.64681    1.000
    C247     C        0.66120    0.63220    0.58218    1.000
    H165     H        0.66220    0.65190    0.56210    1.000
    C248     C        0.70390    0.61730    0.59676    1.000
    H166     H        0.73350    0.62560    0.58690    1.000
    C249     C        0.61760    0.59220    0.62322    1.000
    H167     H        0.58750    0.58260    0.63240    1.000
    C250     C        0.65820    0.57690    0.63937    1.000
    H168     H        0.65590    0.55760    0.65940    1.000
    C251     C        0.70240    0.58960    0.62642    1.000
    C252     C        0.74680    0.57540    0.64329    1.000
    N73      N        0.94380    0.00910    0.92110    1.000
    N74      N        0.93300    0.41740    0.03315    1.000
    N75      N        0.79630    0.43130    0.84152    1.000
    N76      N        0.90670    0.67390    0.95639    1.000
    N77      N        0.87280    0.53160    0.93555    1.000
    N78      N        0.87120    0.67980    0.90890    1.000
    N79      N        0.76790    0.42580    0.77303    1.000
    N80      N        0.96240    0.61250    0.60572    1.000
    N81      N        0.61860    0.62030    0.59487    1.000
    N82      N        0.82600    0.54660    0.67522    1.000
    N83      N        0.78840    0.58770    0.62991    1.000
    N84      N        0.74160    0.54970    0.67186    1.000
    Zn22     Zn       0.74145    0.64902    0.31193    1.000
    Zn23     Zn       0.55627    0.65501    0.57251    1.000
    Zn24     Zn       0.52713    0.85557    0.41418    1.000
    I43      I        0.49026    0.57314    0.60115    1.000
    I44      I        0.50938    0.78193    0.46452    1.000
    I45      I        0.69805    0.81041    0.30570    1.000
    I46      I        0.56195    0.83633    0.56141    1.000
    I47      I        0.57596    0.77347    0.37454    1.000
    I48      I        0.82888    0.64545    0.32623    1.000
    C253     C        0.57660    0.03820    0.39882    1.000
    H169     H        0.57940    0.00650    0.38030    1.000
    C254     C        0.59390    0.13130    0.40168    1.000
    H170     H        0.60820    0.16310    0.38540    1.000
    C255     C        0.55370    0.03570    0.44718    1.000
    H171     H        0.54050    0.00150    0.46340    1.000
    C256     C        0.56950    0.12960    0.45158    1.000
    H172     H        0.56610    0.15990    0.47030    1.000
    C257     C        0.59010    0.17810    0.42839    1.000
    C258     C        0.60560    0.28050    0.43183    1.000
    C259     C        0.55320    0.49130    0.53044    1.000
    H173     H        0.53480    0.46340    0.54580    1.000
    C260     C        0.56440    0.43400    0.50612    1.000
    H174     H        0.55390    0.36870    0.50480    1.000
    C261     C        0.59220    0.62340    0.51123    1.000
    H175     H        0.60170    0.68930    0.51310    1.000
    C262     C        0.60460    0.57360    0.48659    1.000
    H176     H        0.62210    0.60510    0.47140    1.000
    C263     C        0.59180    0.47620    0.48349    1.000
    C264     C        0.60540    0.41990    0.45743    1.000
    C265     C        0.68200    0.61410    0.36374    1.000
    H177     H        0.68160    0.68300    0.36370    1.000
    C266     C        0.66020    0.56650    0.38663    1.000
    H178     H        0.64540    0.60190    0.40210    1.000
    C267     C        0.70320    0.47200    0.34201    1.000
    H179     H        0.71850    0.43790    0.32650    1.000
    C268     C        0.68140    0.41900    0.36413    1.000
    H180     H        0.68140    0.35010    0.36350    1.000
    C269     C        0.65990    0.46670    0.38681    1.000
    C270     C        0.63800    0.41500    0.41178    1.000
    C271     C        0.76930    0.53390    0.25972    1.000
    H181     H        0.79920    0.53150    0.26960    1.000
    C272     C        0.76500    0.49470    0.23128    1.000
    H182     H        0.79190    0.46600    0.22190    1.000
    C273     C        0.68990    0.57650    0.25965    1.000
    H183     H        0.66340    0.60490    0.26950    1.000
    C274     C        0.68360    0.53830    0.23138    1.000
    H184     H        0.65320    0.53990    0.22210    1.000
    C275     C        0.72250    0.49800    0.21735    1.000
    C276     C        0.71780    0.46340    0.18634    1.000
    C277     C        0.54130    0.39850    0.13469    1.000
    H185     H        0.51290    0.39640    0.14610    1.000
    C278     C        0.58420    0.41280    0.14938    1.000
    H186     H        0.58510    0.42170    0.17010    1.000
    C279     C        0.57780    0.39040    0.08971    1.000
    H187     H        0.57570    0.38370    0.06890    1.000
    C280     C        0.62200    0.40270    0.10244    1.000
    H188     H        0.64980    0.40360    0.09050    1.000
    C281     C        0.62580    0.41370    0.13266    1.000
    C282     C        0.67330    0.42670    0.14681    1.000
    C283     C        0.83880    0.36780    0.08218    1.000
    H189     H        0.83780    0.34810    0.06210    1.000
    C284     C        0.79610    0.38270    0.09676    1.000
    H190     H        0.76650    0.37440    0.08690    1.000
    C285     C        0.88240    0.40780    0.12322    1.000
    H191     H        0.91250    0.41740    0.13240    1.000
    C286     C        0.84180    0.42310    0.13937    1.000
    H192     H        0.84410    0.44240    0.15940    1.000
    C287     C        0.79760    0.41040    0.12642    1.000
    C288     C        0.75320    0.42460    0.14329    1.000
    N85      N        0.55620    0.99090    0.42110    1.000
    N86      N        0.56700    0.58260    0.53315    1.000
    N87      N        0.70370    0.56870    0.34152    1.000
    N88      N        0.59330    0.32610    0.45639    1.000
    N89      N        0.62720    0.46840    0.43555    1.000
    N90      N        0.62880    0.32020    0.40890    1.000
    N91      N        0.73210    0.57420    0.27303    1.000
    N92      N        0.53760    0.38750    0.10572    1.000
    N93      N        0.88140    0.37970    0.09487    1.000
    N94      N        0.67400    0.45340    0.17522    1.000
    N95      N        0.71160    0.41230    0.12991    1.000
    N96      N        0.75840    0.45030    0.17186    1.000
    C289     C        0.25390    0.18720    0.34530    1.000
    C290     C        0.30320    0.18820    0.34190    1.000
    H193     H        0.31680    0.20740    0.32360    1.000
    C291     C        0.33270    0.16110    0.36510    1.000
    C292     C        0.31250    0.14090    0.39250    1.000
    H194     H        0.33260    0.12630    0.40880    1.000
    C293     C        0.26340    0.14190    0.39620    1.000
    H195     H        0.25000    0.12760    0.41490    1.000
    C294     C        0.23370    0.16400    0.37240    1.000
    C295     C        0.18380    0.16300    0.37550    1.000
    C296     C        0.16320    0.14700    0.40310    1.000
    H196     H        0.18300    0.14180    0.42000    1.000
    C297     C        0.11420    0.13800    0.40620    1.000
    H197     H        0.10070    0.12130    0.42470    1.000
    C298     C        0.08480    0.15400    0.38180    1.000
    H198     H        0.05110    0.15540    0.38410    1.000
    C299     C        0.10510    0.16700    0.35410    1.000
    H199     H        0.08540    0.16730    0.33710    1.000
    C300     C        0.15480    0.17900    0.35110    1.000
    C301     C        0.17550    0.20000    0.32350    1.000
    C302     C        0.14710    0.21800    0.29850    1.000
    H200     H        0.11340    0.21150    0.29980    1.000
    C303     C        0.16800    0.24420    0.27200    1.000
    H201     H        0.14860    0.25460    0.25520    1.000
    C304     C        0.21740    0.25570    0.26990    1.000
    H202     H        0.23160    0.27620    0.25190    1.000
    C305     C        0.24570    0.23670    0.29440    1.000
    H203     H        0.27940    0.24240    0.29300    1.000
    C306     C        0.22480    0.20900    0.32110    1.000
    C307     C        0.41520    0.17080    0.33900    1.000
    C308     C        0.46680    0.17280    0.34600    1.000
    N97      N        0.38300    0.16280    0.36260    1.000
    H204     H        0.39740    0.15770    0.37970    1.000
    O1       O        0.39870    0.17220    0.31340    1.000
    C309     C        0.50830    0.17500    0.32430    1.000
    C310     C        0.51700    0.08600    0.30860    1.000
    H205     H        0.48540    0.05990    0.30310    1.000
    H206     H        0.53120    0.04040    0.32280    1.000
    C311     C        0.54640    0.08300    0.28240    1.000
    H207     H        0.52830    0.11720    0.26680    1.000
    H208     H        0.57480    0.12330    0.28660    1.000
    C312     C        0.56350    0.99500    0.26960    1.000
    H209     H        0.58090    0.96080    0.28540    1.000
    H210     H        0.53490    0.95580    0.26520    1.000
    C313     C        0.59290    0.99000    0.24430    1.000
    H211     H        0.62500    0.01120    0.25060    1.000
    H212     H        0.58090    0.03940    0.23040    1.000
    C314     C        0.60000    0.90400    0.22730    1.000
    H213     H        0.62170    0.91800    0.21090    1.000
    H214     H        0.56920    0.88170    0.21950    1.000
    H215     H        0.61380    0.85330    0.23980    1.000
    C315     C        0.68950    0.19500    0.17310    1.000
    C316     C        0.66910    0.22300    0.19990    1.000
    H216     H        0.63540    0.22300    0.20190    1.000
    C317     C        0.69760    0.25000    0.22400    1.000
    C318     C        0.74710    0.25100    0.22110    1.000
    H217     H        0.76650    0.26980    0.23720    1.000
    C319     C        0.76830    0.22400    0.19500    1.000
    H218     H        0.80210    0.22330    0.19320    1.000
    C320     C        0.73970    0.19700    0.17110    1.000
    C321     C        0.76110    0.17300    0.14400    1.000
    C322     C        0.81100    0.17300    0.14080    1.000
    H219     H        0.83050    0.19050    0.15710    1.000
    C323     C        0.83220    0.14800    0.11430    1.000
    H220     H        0.86600    0.14390    0.11280    1.000
    C324     C        0.80400    0.12770    0.08980    1.000
    H221     H        0.81850    0.11420    0.07130    1.000
    C325     C        0.75440    0.12800    0.09250    1.000
    H222     H        0.73520    0.10950    0.07620    1.000
    C326     C        0.73260    0.15400    0.11940    1.000
    C327     C        0.68140    0.15400    0.12110    1.000
    C328     C        0.65230    0.13800    0.09610    1.000
    H223     H        0.66710    0.12420    0.07780    1.000
    C329     C        0.60280    0.14300    0.09750    1.000
    H224     H        0.58420    0.14140    0.08000    1.000
    C330     C        0.58070    0.14900    0.12540    1.000
    H225     H        0.54730    0.13930    0.12750    1.000
    C331     C        0.60930    0.17100    0.14990    1.000
    H226     H        0.59420    0.18710    0.16800    1.000
    C332     C        0.66000    0.16900    0.14880    1.000
    C333     C        0.62600    0.32300    0.25310    1.000
    C334     C        0.61640    0.36700    0.28050    1.000
    H227     H        0.61030    0.31310    0.29450    1.000
    H228     H        0.64630    0.39850    0.28690    1.000
    C335     C        0.58090    0.43200    0.28450    1.000
    H229     H        0.55170    0.40630    0.27500    1.000
    H230     H        0.58980    0.49210    0.27370    1.000
    C336     C        0.56810    0.46000    0.31550    1.000
    H231     H        0.55280    0.40420    0.32520    1.000
    H232     H        0.59800    0.47470    0.32640    1.000
    C337     C        0.53620    0.54400    0.31820    1.000
    H233     H        0.53720    0.56660    0.33890    1.000
    H234     H        0.50330    0.52200    0.31420    1.000
    C338     C        0.54560    0.62900    0.29920    1.000
    H235     H        0.54870    0.60720    0.27850    1.000
    H236     H        0.57620    0.65910    0.30510    1.000
    C339     C        0.50670    0.70400    0.30110    1.000
    H237     H        0.47800    0.67960    0.29070    1.000
    H238     H        0.49820    0.71440    0.32200    1.000
    C340     C        0.52100    0.79900    0.28770    1.000
    H239     H        0.49430    0.84450    0.28840    1.000
    H240     H        0.53090    0.78920    0.26720    1.000
    H241     H        0.54810    0.82650    0.29880    1.000
    N98      N        0.67430    0.28210    0.25060    1.000
    H242     H        0.69070    0.27640    0.26710    1.000
    O2       O        0.59660    0.33400    0.23300    1.000
    C341     C        0.48430    0.24600    0.32760    1.000
    C342     C        0.53930    0.24600    0.32380    1.000
    C343     C        0.56150    0.31100    0.30740    1.000
    H243     H        0.59260    0.31330    0.31780    1.000
    H244     H        0.56780    0.27140    0.28970    1.000
    C344     C        0.56200    0.39700    0.29560    1.000
    H245     H        0.52670    0.40810    0.29370    1.000
    H246     H        0.57200    0.38050    0.27540    1.000
    C345     C        0.57600    0.48700    0.29720    1.000
    H247     H        0.57880    0.50410    0.27600    1.000
    H248     H        0.61000    0.47750    0.30340    1.000
    C346     C        0.56700    0.57200    0.30870    1.000
    H249     H        0.57880    0.62330    0.29550    1.000
    H250     H        0.58350    0.57770    0.32780    1.000
    H251     H        0.53280    0.57910    0.31150    1.000
    C347     C        0.75390    0.18720    0.15470    1.000
    C348     C        0.80320    0.18820    0.15810    1.000
    H252     H        0.81680    0.20740    0.17640    1.000
    C349     C        0.83270    0.16110    0.13490    1.000
    C350     C        0.81250    0.14090    0.10750    1.000
    H253     H        0.83260    0.12630    0.09120    1.000
    C351     C        0.76340    0.14190    0.10380    1.000
    H254     H        0.75000    0.12760    0.08510    1.000
    C352     C        0.73370    0.16400    0.12760    1.000
    C353     C        0.68380    0.16300    0.12450    1.000
    C354     C        0.66320    0.14700    0.09690    1.000
    H255     H        0.68300    0.14180    0.08000    1.000
    C355     C        0.61420    0.13800    0.09380    1.000
    H256     H        0.60070    0.12130    0.07530    1.000
    C356     C        0.58480    0.15400    0.11820    1.000
    H257     H        0.55110    0.15540    0.11590    1.000
    C357     C        0.60510    0.16700    0.14590    1.000
    H258     H        0.58540    0.16730    0.16290    1.000
    C358     C        0.65480    0.17900    0.14890    1.000
    C359     C        0.67550    0.20000    0.17650    1.000
    C360     C        0.64710    0.21800    0.20150    1.000
    H259     H        0.61340    0.21150    0.20020    1.000
    C361     C        0.66800    0.24420    0.22800    1.000
    H260     H        0.64860    0.25460    0.24480    1.000
    C362     C        0.71740    0.25570    0.23010    1.000
    H261     H        0.73160    0.27620    0.24810    1.000
    C363     C        0.74570    0.23670    0.20560    1.000
    H262     H        0.77940    0.24240    0.20700    1.000
    C364     C        0.72480    0.20900    0.17890    1.000
    C365     C        0.91520    0.17080    0.16100    1.000
    C366     C        0.96680    0.17280    0.15400    1.000
    N99      N        0.88300    0.16280    0.13740    1.000
    H263     H        0.89740    0.15770    0.12030    1.000
    O3       O        0.89870    0.17220    0.18660    1.000
    C367     C        0.00830    0.17500    0.17570    1.000
    C368     C        0.01700    0.08600    0.19140    1.000
    H264     H        0.98540    0.05990    0.19690    1.000
    H265     H        0.03120    0.04040    0.17720    1.000
    C369     C        0.04640    0.08300    0.21760    1.000
    H266     H        0.02830    0.11720    0.23320    1.000
    H267     H        0.07480    0.12330    0.21340    1.000
    C370     C        0.06350    0.99500    0.23040    1.000
    H268     H        0.08090    0.96080    0.21460    1.000
    H269     H        0.03490    0.95580    0.23480    1.000
    C371     C        0.09290    0.99000    0.25570    1.000
    H270     H        0.12500    0.01120    0.24940    1.000
    H271     H        0.08090    0.03940    0.26960    1.000
    C372     C        0.10000    0.90400    0.27270    1.000
    H272     H        0.12170    0.91800    0.28910    1.000
    H273     H        0.06920    0.88170    0.28050    1.000
    H274     H        0.11380    0.85330    0.26020    1.000
    C373     C        0.18950    0.19500    0.32690    1.000
    C374     C        0.16910    0.22300    0.30010    1.000
    H275     H        0.13540    0.22300    0.29810    1.000
    C375     C        0.19760    0.25000    0.27600    1.000
    C376     C        0.24710    0.25100    0.27890    1.000
    H276     H        0.26650    0.26980    0.26280    1.000
    C377     C        0.26830    0.22400    0.30500    1.000
    H277     H        0.30210    0.22330    0.30680    1.000
    C378     C        0.23970    0.19700    0.32890    1.000
    C379     C        0.26110    0.17300    0.35600    1.000
    C380     C        0.31100    0.17300    0.35920    1.000
    H278     H        0.33050    0.19050    0.34290    1.000
    C381     C        0.33220    0.14800    0.38570    1.000
    H279     H        0.36600    0.14390    0.38720    1.000
    C382     C        0.30400    0.12770    0.41020    1.000
    H280     H        0.31850    0.11420    0.42870    1.000
    C383     C        0.25440    0.12800    0.40750    1.000
    H281     H        0.23520    0.10950    0.42380    1.000
    C384     C        0.23260    0.15400    0.38060    1.000
    C385     C        0.18140    0.15400    0.37890    1.000
    C386     C        0.15230    0.13800    0.40390    1.000
    H282     H        0.16710    0.12420    0.42220    1.000
    C387     C        0.10280    0.14300    0.40250    1.000
    H283     H        0.08420    0.14140    0.42000    1.000
    C388     C        0.08070    0.14900    0.37460    1.000
    H284     H        0.04730    0.13930    0.37250    1.000
    C389     C        0.10930    0.17100    0.35010    1.000
    H285     H        0.09420    0.18710    0.33200    1.000
    C390     C        0.16000    0.16900    0.35120    1.000
    C391     C        0.12600    0.32300    0.24690    1.000
    C392     C        0.11640    0.36700    0.21950    1.000
    H286     H        0.11030    0.31310    0.20550    1.000
    H287     H        0.14630    0.39850    0.21310    1.000
    C393     C        0.08090    0.43200    0.21550    1.000
    H288     H        0.05170    0.40630    0.22500    1.000
    H289     H        0.08980    0.49210    0.22630    1.000
    C394     C        0.06810    0.46000    0.18450    1.000
    H290     H        0.05280    0.40420    0.17480    1.000
    H291     H        0.09800    0.47470    0.17360    1.000
    C395     C        0.03620    0.54400    0.18180    1.000
    H292     H        0.03720    0.56660    0.16110    1.000
    H293     H        0.00330    0.52200    0.18580    1.000
    C396     C        0.04560    0.62900    0.20080    1.000
    H294     H        0.04870    0.60720    0.22150    1.000
    H295     H        0.07620    0.65910    0.19490    1.000
    C397     C        0.00670    0.70400    0.19890    1.000
    H296     H        0.97800    0.67960    0.20930    1.000
    H297     H        0.99820    0.71440    0.17800    1.000
    C398     C        0.02100    0.79900    0.21230    1.000
    H298     H        0.99430    0.84450    0.21160    1.000
    H299     H        0.03090    0.78920    0.23280    1.000
    H300     H        0.04810    0.82650    0.20120    1.000
    N100     N        0.17430    0.28210    0.24940    1.000
    H301     H        0.19070    0.27640    0.23290    1.000
    O4       O        0.09660    0.33400    0.26700    1.000
    C399     C        0.98430    0.24600    0.17240    1.000
    C400     C        0.03930    0.24600    0.17620    1.000
    C401     C        0.06150    0.31100    0.19260    1.000
    H302     H        0.09260    0.31330    0.18220    1.000
    H303     H        0.06780    0.27140    0.21030    1.000
    C402     C        0.06200    0.39700    0.20440    1.000
    H304     H        0.02670    0.40810    0.20630    1.000
    H305     H        0.07200    0.38050    0.22460    1.000
    C403     C        0.07600    0.48700    0.20280    1.000
    H306     H        0.07880    0.50410    0.22400    1.000
    H307     H        0.11000    0.47750    0.19660    1.000
    C404     C        0.06700    0.57200    0.19130    1.000
    H308     H        0.07880    0.62330    0.20450    1.000
    H309     H        0.08350    0.57770    0.17220    1.000
    H310     H        0.03280    0.57910    0.18850    1.000
    C405     C        0.24610    0.81280    0.84530    1.000
    C406     C        0.19680    0.81180    0.84190    1.000
    H311     H        0.18320    0.79260    0.82360    1.000
    C407     C        0.16730    0.83890    0.86510    1.000
    C408     C        0.18750    0.85910    0.89250    1.000
    H312     H        0.16740    0.87370    0.90880    1.000
    C409     C        0.23660    0.85810    0.89620    1.000
    H313     H        0.25000    0.87240    0.91490    1.000
    C410     C        0.26630    0.83600    0.87240    1.000
    C411     C        0.31620    0.83700    0.87550    1.000
    C412     C        0.33680    0.85300    0.90310    1.000
    H314     H        0.31700    0.85820    0.92000    1.000
    C413     C        0.38580    0.86200    0.90620    1.000
    H315     H        0.39930    0.87870    0.92470    1.000
    C414     C        0.41520    0.84600    0.88180    1.000
    H316     H        0.44890    0.84460    0.88410    1.000
    C415     C        0.39490    0.83300    0.85410    1.000
    H317     H        0.41460    0.83270    0.83710    1.000
    C416     C        0.34520    0.82100    0.85110    1.000
    C417     C        0.32450    0.80000    0.82350    1.000
    C418     C        0.35290    0.78200    0.79850    1.000
    H318     H        0.38660    0.78850    0.79980    1.000
    C419     C        0.33200    0.75580    0.77200    1.000
    H319     H        0.35140    0.74540    0.75520    1.000
    C420     C        0.28260    0.74430    0.76990    1.000
    H320     H        0.26840    0.72380    0.75190    1.000
    C421     C        0.25430    0.76330    0.79440    1.000
    H321     H        0.22060    0.75760    0.79300    1.000
    C422     C        0.27520    0.79100    0.82110    1.000
    C423     C        0.08480    0.82920    0.83900    1.000
    C424     C        0.03320    0.82720    0.84600    1.000
    N101     N        0.11700    0.83720    0.86260    1.000
    H322     H        0.10260    0.84230    0.87970    1.000
    O5       O        0.10130    0.82780    0.81340    1.000
    C425     C        0.99170    0.82500    0.82430    1.000
    C426     C        0.98300    0.91400    0.80860    1.000
    H323     H        0.01460    0.94010    0.80310    1.000
    H324     H        0.96880    0.95960    0.82280    1.000
    C427     C        0.95360    0.91700    0.78240    1.000
    H325     H        0.97170    0.88280    0.76680    1.000
    H326     H        0.92520    0.87670    0.78660    1.000
    C428     C        0.93650    0.00500    0.76960    1.000
    H327     H        0.91910    0.03920    0.78540    1.000
    H328     H        0.96510    0.04420    0.76520    1.000
    C429     C        0.90710    0.01000    0.74430    1.000
    H329     H        0.87500    0.98880    0.75060    1.000
    H330     H        0.91910    0.96060    0.73040    1.000
    C430     C        0.90000    0.09600    0.72730    1.000
    H331     H        0.87830    0.08200    0.71090    1.000
    H332     H        0.93080    0.11830    0.71950    1.000
    H333     H        0.88620    0.14670    0.73980    1.000
    C431     C        0.81050    0.80500    0.67310    1.000
    C432     C        0.83090    0.77700    0.69990    1.000
    H334     H        0.86460    0.77700    0.70190    1.000
    C433     C        0.80240    0.75000    0.72400    1.000
    C434     C        0.75290    0.74900    0.72110    1.000
    H335     H        0.73350    0.73020    0.73720    1.000
    C435     C        0.73170    0.77600    0.69500    1.000
    H336     H        0.69790    0.77670    0.69320    1.000
    C436     C        0.76030    0.80300    0.67110    1.000
    C437     C        0.73890    0.82700    0.64400    1.000
    C438     C        0.68900    0.82700    0.64080    1.000
    H337     H        0.66950    0.80950    0.65710    1.000
    C439     C        0.66780    0.85200    0.61430    1.000
    H338     H        0.63400    0.85610    0.61280    1.000
    C440     C        0.69600    0.87230    0.58980    1.000
    H339     H        0.68150    0.88580    0.57130    1.000
    C441     C        0.74560    0.87200    0.59250    1.000
    H340     H        0.76480    0.89050    0.57620    1.000
    C442     C        0.76740    0.84600    0.61940    1.000
    C443     C        0.81860    0.84600    0.62110    1.000
    C444     C        0.84770    0.86200    0.59610    1.000
    H341     H        0.83290    0.87580    0.57780    1.000
    C445     C        0.89720    0.85700    0.59750    1.000
    H342     H        0.91580    0.85860    0.58000    1.000
    C446     C        0.91930    0.85100    0.62540    1.000
    H343     H        0.95270    0.86070    0.62750    1.000
    C447     C        0.89070    0.82900    0.64990    1.000
    H344     H        0.90580    0.81290    0.66800    1.000
    C448     C        0.84000    0.83100    0.64880    1.000
    C449     C        0.87400    0.67700    0.75310    1.000
    C450     C        0.88360    0.63300    0.78050    1.000
    H345     H        0.88970    0.68690    0.79450    1.000
    H346     H        0.85370    0.60150    0.78690    1.000
    C451     C        0.91910    0.56800    0.78450    1.000
    H347     H        0.94830    0.59370    0.77500    1.000
    H348     H        0.91020    0.50790    0.77370    1.000
    C452     C        0.93190    0.54000    0.81550    1.000
    H349     H        0.94720    0.59580    0.82520    1.000
    H350     H        0.90200    0.52530    0.82640    1.000
    C453     C        0.96380    0.45600    0.81820    1.000
    H351     H        0.96280    0.43340    0.83890    1.000
    H352     H        0.99670    0.47800    0.81420    1.000
    C454     C        0.95440    0.37100    0.79920    1.000
    H353     H        0.95130    0.39280    0.77850    1.000
    H354     H        0.92380    0.34090    0.80510    1.000
    C455     C        0.99330    0.29600    0.80110    1.000
    H355     H        0.02200    0.32040    0.79070    1.000
    H356     H        0.00180    0.28560    0.82200    1.000
    C456     C        0.97900    0.20100    0.78770    1.000
    H357     H        0.00570    0.15550    0.78840    1.000
    H358     H        0.96910    0.21080    0.76720    1.000
    H359     H        0.95190    0.17350    0.79880    1.000
    N102     N        0.82570    0.71790    0.75060    1.000
    H360     H        0.80930    0.72360    0.76710    1.000
    O6       O        0.90340    0.66600    0.73300    1.000
    C457     C        0.01570    0.75400    0.82760    1.000
    C458     C        0.96070    0.75400    0.82380    1.000
    C459     C        0.93850    0.68900    0.80740    1.000
    H361     H        0.90740    0.68670    0.81780    1.000
    H362     H        0.93220    0.72860    0.78970    1.000
    C460     C        0.93800    0.60300    0.79560    1.000
    H363     H        0.97330    0.59190    0.79370    1.000
    H364     H        0.92800    0.61950    0.77540    1.000
    C461     C        0.92400    0.51300    0.79720    1.000
    H365     H        0.92120    0.49590    0.77600    1.000
    H366     H        0.89000    0.52250    0.80340    1.000
    C462     C        0.93300    0.42800    0.80870    1.000
    H367     H        0.92120    0.37670    0.79550    1.000
    H368     H        0.91650    0.42230    0.82780    1.000
    H369     H        0.96720    0.42090    0.81150    1.000
    C463     C        0.74610    0.81280    0.65470    1.000
    C464     C        0.69680    0.81180    0.65810    1.000
    H370     H        0.68320    0.79260    0.67640    1.000
    C465     C        0.66730    0.83890    0.63490    1.000
    C466     C        0.68750    0.85910    0.60750    1.000
    H371     H        0.66740    0.87370    0.59120    1.000
    C467     C        0.73660    0.85810    0.60380    1.000
    H372     H        0.75000    0.87240    0.58510    1.000
    C468     C        0.76630    0.83600    0.62760    1.000
    C469     C        0.81620    0.83700    0.62450    1.000
    C470     C        0.83680    0.85300    0.59690    1.000
    H373     H        0.81700    0.85820    0.58000    1.000
    C471     C        0.88580    0.86200    0.59380    1.000
    H374     H        0.89930    0.87870    0.57530    1.000
    C472     C        0.91520    0.84600    0.61820    1.000
    H375     H        0.94890    0.84460    0.61590    1.000
    C473     C        0.89490    0.83300    0.64590    1.000
    H376     H        0.91460    0.83270    0.66290    1.000
    C474     C        0.84520    0.82100    0.64890    1.000
    C475     C        0.82450    0.80000    0.67650    1.000
    C476     C        0.85290    0.78200    0.70150    1.000
    H377     H        0.88660    0.78850    0.70020    1.000
    C477     C        0.83200    0.75580    0.72800    1.000
    H378     H        0.85140    0.74540    0.74480    1.000
    C478     C        0.78260    0.74430    0.73010    1.000
    H379     H        0.76840    0.72380    0.74810    1.000
    C479     C        0.75430    0.76330    0.70560    1.000
    H380     H        0.72060    0.75760    0.70700    1.000
    C480     C        0.77520    0.79100    0.67890    1.000
    C481     C        0.58480    0.82920    0.66100    1.000
    C482     C        0.53320    0.82720    0.65400    1.000
    N103     N        0.61700    0.83720    0.63740    1.000
    H381     H        0.60260    0.84230    0.62030    1.000
    O7       O        0.60130    0.82780    0.68660    1.000
    C483     C        0.49170    0.82500    0.67570    1.000
    C484     C        0.48300    0.91400    0.69140    1.000
    H382     H        0.51460    0.94010    0.69690    1.000
    H383     H        0.46880    0.95960    0.67720    1.000
    C485     C        0.45360    0.91700    0.71760    1.000
    H384     H        0.47170    0.88280    0.73320    1.000
    H385     H        0.42520    0.87670    0.71340    1.000
    C486     C        0.43650    0.00500    0.73040    1.000
    H386     H        0.41910    0.03920    0.71460    1.000
    H387     H        0.46510    0.04420    0.73480    1.000
    C487     C        0.40710    0.01000    0.75570    1.000
    H388     H        0.37500    0.98880    0.74940    1.000
    H389     H        0.41910    0.96060    0.76960    1.000
    C488     C        0.40000    0.09600    0.77270    1.000
    H390     H        0.37830    0.08200    0.78910    1.000
    H391     H        0.43080    0.11830    0.78050    1.000
    H392     H        0.38620    0.14670    0.76020    1.000
    C489     C        0.31050    0.80500    0.82690    1.000
    C490     C        0.33090    0.77700    0.80010    1.000
    H393     H        0.36460    0.77700    0.79810    1.000
    C491     C        0.30240    0.75000    0.77600    1.000
    C492     C        0.25290    0.74900    0.77890    1.000
    H394     H        0.23350    0.73020    0.76280    1.000
    C493     C        0.23170    0.77600    0.80500    1.000
    H395     H        0.19790    0.77670    0.80680    1.000
    C494     C        0.26030    0.80300    0.82890    1.000
    C495     C        0.23890    0.82700    0.85600    1.000
    C496     C        0.18900    0.82700    0.85920    1.000
    H396     H        0.16950    0.80950    0.84290    1.000
    C497     C        0.16780    0.85200    0.88570    1.000
    H397     H        0.13400    0.85610    0.88720    1.000
    C498     C        0.19600    0.87230    0.91020    1.000
    H398     H        0.18150    0.88580    0.92870    1.000
    C499     C        0.24560    0.87200    0.90750    1.000
    H399     H        0.26480    0.89050    0.92380    1.000
    C500     C        0.26740    0.84600    0.88060    1.000
    C501     C        0.31860    0.84600    0.87890    1.000
    C502     C        0.34770    0.86200    0.90390    1.000
    H400     H        0.33290    0.87580    0.92220    1.000
    C503     C        0.39720    0.85700    0.90250    1.000
    H401     H        0.41580    0.85860    0.92000    1.000
    C504     C        0.41930    0.85100    0.87460    1.000
    H402     H        0.45270    0.86070    0.87250    1.000
    C505     C        0.39070    0.82900    0.85010    1.000
    H403     H        0.40580    0.81290    0.83200    1.000
    C506     C        0.34000    0.83100    0.85120    1.000
    C507     C        0.37400    0.67700    0.74690    1.000
    C508     C        0.38360    0.63300    0.71950    1.000
    H404     H        0.38970    0.68690    0.70550    1.000
    H405     H        0.35370    0.60150    0.71310    1.000
    C509     C        0.41910    0.56800    0.71550    1.000
    H406     H        0.44830    0.59370    0.72500    1.000
    H407     H        0.41020    0.50790    0.72630    1.000
    C510     C        0.43190    0.54000    0.68450    1.000
    H408     H        0.44720    0.59580    0.67480    1.000
    H409     H        0.40200    0.52530    0.67360    1.000
    C511     C        0.46380    0.45600    0.68180    1.000
    H410     H        0.46280    0.43340    0.66110    1.000
    H411     H        0.49670    0.47800    0.68580    1.000
    C512     C        0.45440    0.37100    0.70080    1.000
    H412     H        0.45130    0.39280    0.72150    1.000
    H413     H        0.42380    0.34090    0.69490    1.000
    C513     C        0.49330    0.29600    0.69890    1.000
    H414     H        0.52200    0.32040    0.70930    1.000
    H415     H        0.50180    0.28560    0.67800    1.000
    C514     C        0.47900    0.20100    0.71230    1.000
    H416     H        0.50570    0.15550    0.71160    1.000
    H417     H        0.46910    0.21080    0.73280    1.000
    H418     H        0.45190    0.17350    0.70120    1.000
    N104     N        0.32570    0.71790    0.74940    1.000
    H419     H        0.30930    0.72360    0.73290    1.000
    O8       O        0.40340    0.66600    0.76700    1.000
    C515     C        0.51570    0.75400    0.67240    1.000
    C516     C        0.46070    0.75400    0.67620    1.000
    C517     C        0.43850    0.68900    0.69260    1.000
    H420     H        0.40740    0.68670    0.68220    1.000
    H421     H        0.43220    0.72860    0.71030    1.000
    C518     C        0.43800    0.60300    0.70440    1.000
    H422     H        0.47330    0.59190    0.70630    1.000
    H423     H        0.42800    0.61950    0.72460    1.000
    C519     C        0.42400    0.51300    0.70280    1.000
    H424     H        0.42120    0.49590    0.72400    1.000
    H425     H        0.39000    0.52250    0.69660    1.000
    C520     C        0.43300    0.42800    0.69130    1.000
    H426     H        0.42120    0.37670    0.70450    1.000
    H427     H        0.41650    0.42230    0.67220    1.000
    H428     H        0.46720    0.42090    0.68850    1.000
    C521     C        0.74610    0.68720    0.15470    1.000
    C522     C        0.69680    0.68820    0.15810    1.000
    H429     H        0.68320    0.70740    0.17640    1.000
    C523     C        0.66730    0.66110    0.13490    1.000
    C524     C        0.68750    0.64090    0.10750    1.000
    H430     H        0.66740    0.62630    0.09120    1.000
    C525     C        0.73660    0.64190    0.10380    1.000
    H431     H        0.75000    0.62760    0.08510    1.000
    C526     C        0.76630    0.66400    0.12760    1.000
    C527     C        0.81620    0.66300    0.12450    1.000
    C528     C        0.83680    0.64700    0.09690    1.000
    H432     H        0.81700    0.64180    0.08000    1.000
    C529     C        0.88580    0.63800    0.09380    1.000
    H433     H        0.89930    0.62130    0.07530    1.000
    C530     C        0.91520    0.65400    0.11820    1.000
    H434     H        0.94890    0.65540    0.11590    1.000
    C531     C        0.89490    0.66700    0.14590    1.000
    H435     H        0.91460    0.66730    0.16290    1.000
    C532     C        0.84520    0.67900    0.14890    1.000
    C533     C        0.82450    0.70000    0.17650    1.000
    C534     C        0.85290    0.71800    0.20150    1.000
    H436     H        0.88660    0.71150    0.20020    1.000
    C535     C        0.83200    0.74420    0.22800    1.000
    H437     H        0.85140    0.75460    0.24480    1.000
    C536     C        0.78260    0.75570    0.23010    1.000
    H438     H        0.76840    0.77620    0.24810    1.000
    C537     C        0.75430    0.73670    0.20560    1.000
    H439     H        0.72060    0.74240    0.20700    1.000
    C538     C        0.77520    0.70900    0.17890    1.000
    C539     C        0.58480    0.67080    0.16100    1.000
    C540     C        0.53320    0.67280    0.15400    1.000
    N105     N        0.61700    0.66280    0.13740    1.000
    H440     H        0.60260    0.65770    0.12030    1.000
    O9       O        0.60130    0.67220    0.18660    1.000
    C541     C        0.49170    0.67500    0.17570    1.000
    C542     C        0.48300    0.58600    0.19140    1.000
    H441     H        0.51460    0.55990    0.19690    1.000
    H442     H        0.46880    0.54040    0.17720    1.000
    C543     C        0.45360    0.58300    0.21760    1.000
    H443     H        0.47170    0.61720    0.23320    1.000
    H444     H        0.42520    0.62330    0.21340    1.000
    C544     C        0.43650    0.49500    0.23040    1.000
    H445     H        0.41910    0.46080    0.21460    1.000
    H446     H        0.46510    0.45580    0.23480    1.000
    C545     C        0.40710    0.49000    0.25570    1.000
    H447     H        0.37500    0.51120    0.24940    1.000
    H448     H        0.41910    0.53940    0.26960    1.000
    C546     C        0.40000    0.40400    0.27270    1.000
    H449     H        0.37830    0.41800    0.28910    1.000
    H450     H        0.43080    0.38170    0.28050    1.000
    H451     H        0.38620    0.35330    0.26020    1.000
    C547     C        0.31050    0.69500    0.32690    1.000
    C548     C        0.33090    0.72300    0.30010    1.000
    H452     H        0.36460    0.72300    0.29810    1.000
    C549     C        0.30240    0.75000    0.27600    1.000
    C550     C        0.25290    0.75100    0.27890    1.000
    H453     H        0.23350    0.76980    0.26280    1.000
    C551     C        0.23170    0.72400    0.30500    1.000
    H454     H        0.19790    0.72330    0.30680    1.000
    C552     C        0.26030    0.69700    0.32890    1.000
    C553     C        0.23890    0.67300    0.35600    1.000
    C554     C        0.18900    0.67300    0.35920    1.000
    H455     H        0.16950    0.69050    0.34290    1.000
    C555     C        0.16780    0.64800    0.38570    1.000
    H456     H        0.13400    0.64390    0.38720    1.000
    C556     C        0.19600    0.62770    0.41020    1.000
    H457     H        0.18150    0.61420    0.42870    1.000
    C557     C        0.24560    0.62800    0.40750    1.000
    H458     H        0.26480    0.60950    0.42380    1.000
    C558     C        0.26740    0.65400    0.38060    1.000
    C559     C        0.31860    0.65400    0.37890    1.000
    C560     C        0.34770    0.63800    0.40390    1.000
    H459     H        0.33290    0.62420    0.42220    1.000
    C561     C        0.39720    0.64300    0.40250    1.000
    H460     H        0.41580    0.64140    0.42000    1.000
    C562     C        0.41930    0.64900    0.37460    1.000
    H461     H        0.45270    0.63930    0.37250    1.000
    C563     C        0.39070    0.67100    0.35010    1.000
    H462     H        0.40580    0.68710    0.33200    1.000
    C564     C        0.34000    0.66900    0.35120    1.000
    C565     C        0.37400    0.82300    0.24690    1.000
    C566     C        0.38360    0.86700    0.21950    1.000
    H463     H        0.38970    0.81310    0.20550    1.000
    H464     H        0.35370    0.89850    0.21310    1.000
    C567     C        0.41910    0.93200    0.21550    1.000
    H465     H        0.44830    0.90630    0.22500    1.000
    H466     H        0.41020    0.99210    0.22630    1.000
    C568     C        0.43190    0.96000    0.18450    1.000
    H467     H        0.44720    0.90420    0.17480    1.000
    H468     H        0.40200    0.97470    0.17360    1.000
    C569     C        0.46380    0.04400    0.18180    1.000
    H469     H        0.46280    0.06660    0.16110    1.000
    H470     H        0.49670    0.02200    0.18580    1.000
    C570     C        0.45440    0.12900    0.20080    1.000
    H471     H        0.45130    0.10720    0.22150    1.000
    H472     H        0.42380    0.15910    0.19490    1.000
    C571     C        0.49330    0.20400    0.19890    1.000
    H473     H        0.52200    0.17960    0.20930    1.000
    H474     H        0.50180    0.21440    0.17800    1.000
    C572     C        0.47900    0.29900    0.21230    1.000
    H475     H        0.50570    0.34450    0.21160    1.000
    H476     H        0.46910    0.28920    0.23280    1.000
    H477     H        0.45190    0.32650    0.20120    1.000
    N106     N        0.32570    0.78210    0.24940    1.000
    H478     H        0.30930    0.77640    0.23290    1.000
    O10      O        0.40340    0.83400    0.26700    1.000
    C573     C        0.51570    0.74600    0.17240    1.000
    C574     C        0.46070    0.74600    0.17620    1.000
    C575     C        0.43850    0.81100    0.19260    1.000
    H479     H        0.40740    0.81330    0.18220    1.000
    H480     H        0.43220    0.77140    0.21030    1.000
    C576     C        0.43800    0.89700    0.20440    1.000
    H481     H        0.47330    0.90810    0.20630    1.000
    H482     H        0.42800    0.88050    0.22460    1.000
    C577     C        0.42400    0.98700    0.20280    1.000
    H483     H        0.42120    0.00410    0.22400    1.000
    H484     H        0.39000    0.97750    0.19660    1.000
    C578     C        0.43300    0.07200    0.19130    1.000
    H485     H        0.42120    0.12330    0.20450    1.000
    H486     H        0.41650    0.07770    0.17220    1.000
    H487     H        0.46720    0.07910    0.18850    1.000
    C579     C        0.24610    0.68720    0.34530    1.000
    C580     C        0.19680    0.68820    0.34190    1.000
    H488     H        0.18320    0.70740    0.32360    1.000
    C581     C        0.16730    0.66110    0.36510    1.000
    C582     C        0.18750    0.64090    0.39250    1.000
    H489     H        0.16740    0.62630    0.40880    1.000
    C583     C        0.23660    0.64190    0.39620    1.000
    H490     H        0.25000    0.62760    0.41490    1.000
    C584     C        0.26630    0.66400    0.37240    1.000
    C585     C        0.31620    0.66300    0.37550    1.000
    C586     C        0.33680    0.64700    0.40310    1.000
    H491     H        0.31700    0.64180    0.42000    1.000
    C587     C        0.38580    0.63800    0.40620    1.000
    H492     H        0.39930    0.62130    0.42470    1.000
    C588     C        0.41520    0.65400    0.38180    1.000
    H493     H        0.44890    0.65540    0.38410    1.000
    C589     C        0.39490    0.66700    0.35410    1.000
    H494     H        0.41460    0.66730    0.33710    1.000
    C590     C        0.34520    0.67900    0.35110    1.000
    C591     C        0.32450    0.70000    0.32350    1.000
    C592     C        0.35290    0.71800    0.29850    1.000
    H495     H        0.38660    0.71150    0.29980    1.000
    C593     C        0.33200    0.74420    0.27200    1.000
    H496     H        0.35140    0.75460    0.25520    1.000
    C594     C        0.28260    0.75570    0.26990    1.000
    H497     H        0.26840    0.77620    0.25190    1.000
    C595     C        0.25430    0.73670    0.29440    1.000
    H498     H        0.22060    0.74240    0.29300    1.000
    C596     C        0.27520    0.70900    0.32110    1.000
    C597     C        0.08480    0.67080    0.33900    1.000
    C598     C        0.03320    0.67280    0.34600    1.000
    N107     N        0.11700    0.66280    0.36260    1.000
    H499     H        0.10260    0.65770    0.37970    1.000
    O11      O        0.10130    0.67220    0.31340    1.000
    C599     C        0.99170    0.67500    0.32430    1.000
    C600     C        0.98300    0.58600    0.30860    1.000
    H500     H        0.01460    0.55990    0.30310    1.000
    H501     H        0.96880    0.54040    0.32280    1.000
    C601     C        0.95360    0.58300    0.28240    1.000
    H502     H        0.97170    0.61720    0.26680    1.000
    H503     H        0.92520    0.62330    0.28660    1.000
    C602     C        0.93650    0.49500    0.26960    1.000
    H504     H        0.91910    0.46080    0.28540    1.000
    H505     H        0.96510    0.45580    0.26520    1.000
    C603     C        0.90710    0.49000    0.24430    1.000
    H506     H        0.87500    0.51120    0.25060    1.000
    H507     H        0.91910    0.53940    0.23040    1.000
    C604     C        0.90000    0.40400    0.22730    1.000
    H508     H        0.87830    0.41800    0.21090    1.000
    H509     H        0.93080    0.38170    0.21950    1.000
    H510     H        0.88620    0.35330    0.23980    1.000
    C605     C        0.81050    0.69500    0.17310    1.000
    C606     C        0.83090    0.72300    0.19990    1.000
    H511     H        0.86460    0.72300    0.20190    1.000
    C607     C        0.80240    0.75000    0.22400    1.000
    C608     C        0.75290    0.75100    0.22110    1.000
    H512     H        0.73350    0.76980    0.23720    1.000
    C609     C        0.73170    0.72400    0.19500    1.000
    H513     H        0.69790    0.72330    0.19320    1.000
    C610     C        0.76030    0.69700    0.17110    1.000
    C611     C        0.73890    0.67300    0.14400    1.000
    C612     C        0.68900    0.67300    0.14080    1.000
    H514     H        0.66950    0.69050    0.15710    1.000
    C613     C        0.66780    0.64800    0.11430    1.000
    H515     H        0.63400    0.64390    0.11280    1.000
    C614     C        0.69600    0.62770    0.08980    1.000
    H516     H        0.68150    0.61420    0.07130    1.000
    C615     C        0.74560    0.62800    0.09250    1.000
    H517     H        0.76480    0.60950    0.07620    1.000
    C616     C        0.76740    0.65400    0.11940    1.000
    C617     C        0.81860    0.65400    0.12110    1.000
    C618     C        0.84770    0.63800    0.09610    1.000
    H518     H        0.83290    0.62420    0.07780    1.000
    C619     C        0.89720    0.64300    0.09750    1.000
    H519     H        0.91580    0.64140    0.08000    1.000
    C620     C        0.91930    0.64900    0.12540    1.000
    H520     H        0.95270    0.63930    0.12750    1.000
    C621     C        0.89070    0.67100    0.14990    1.000
    H521     H        0.90580    0.68710    0.16800    1.000
    C622     C        0.84000    0.66900    0.14880    1.000
    C623     C        0.87400    0.82300    0.25310    1.000
    C624     C        0.88360    0.86700    0.28050    1.000
    H522     H        0.88970    0.81310    0.29450    1.000
    H523     H        0.85370    0.89850    0.28690    1.000
    C625     C        0.91910    0.93200    0.28450    1.000
    H524     H        0.94830    0.90630    0.27500    1.000
    H525     H        0.91020    0.99210    0.27370    1.000
    C626     C        0.93190    0.96000    0.31550    1.000
    H526     H        0.94720    0.90420    0.32520    1.000
    H527     H        0.90200    0.97470    0.32640    1.000
    C627     C        0.96380    0.04400    0.31820    1.000
    H528     H        0.96280    0.06660    0.33890    1.000
    H529     H        0.99670    0.02200    0.31420    1.000
    C628     C        0.95440    0.12900    0.29920    1.000
    H530     H        0.95130    0.10720    0.27850    1.000
    H531     H        0.92380    0.15910    0.30510    1.000
    C629     C        0.99330    0.20400    0.30110    1.000
    H532     H        0.02200    0.17960    0.29070    1.000
    H533     H        0.00180    0.21440    0.32200    1.000
    C630     C        0.97900    0.29900    0.28770    1.000
    H534     H        0.00570    0.34450    0.28840    1.000
    H535     H        0.96910    0.28920    0.26720    1.000
    H536     H        0.95190    0.32650    0.29880    1.000
    N108     N        0.82570    0.78210    0.25060    1.000
    H537     H        0.80930    0.77640    0.26710    1.000
    O12      O        0.90340    0.83400    0.23300    1.000
    C631     C        0.01570    0.74600    0.32760    1.000
    C632     C        0.96070    0.74600    0.32380    1.000
    C633     C        0.93850    0.81100    0.30740    1.000
    H538     H        0.90740    0.81330    0.31780    1.000
    H539     H        0.93220    0.77140    0.28970    1.000
    C634     C        0.93800    0.89700    0.29560    1.000
    H540     H        0.97330    0.90810    0.29370    1.000
    H541     H        0.92800    0.88050    0.27540    1.000
    C635     C        0.92400    0.98700    0.29720    1.000
    H542     H        0.92120    0.00410    0.27600    1.000
    H543     H        0.89000    0.97750    0.30340    1.000
    C636     C        0.93300    0.07200    0.30870    1.000
    H544     H        0.92120    0.12330    0.29550    1.000
    H545     H        0.91650    0.07770    0.32780    1.000
    H546     H        0.96720    0.07910    0.31150    1.000
    C637     C        0.75390    0.31280    0.65470    1.000
    C638     C        0.80320    0.31180    0.65810    1.000
    H547     H        0.81680    0.29260    0.67640    1.000
    C639     C        0.83270    0.33890    0.63490    1.000
    C640     C        0.81250    0.35910    0.60750    1.000
    H548     H        0.83260    0.37370    0.59120    1.000
    C641     C        0.76340    0.35810    0.60380    1.000
    H549     H        0.75000    0.37240    0.58510    1.000
    C642     C        0.73370    0.33600    0.62760    1.000
    C643     C        0.68380    0.33700    0.62450    1.000
    C644     C        0.66320    0.35300    0.59690    1.000
    H550     H        0.68300    0.35820    0.58000    1.000
    C645     C        0.61420    0.36200    0.59380    1.000
    H551     H        0.60070    0.37870    0.57530    1.000
    C646     C        0.58480    0.34600    0.61820    1.000
    H552     H        0.55110    0.34460    0.61590    1.000
    C647     C        0.60510    0.33300    0.64590    1.000
    H553     H        0.58540    0.33270    0.66290    1.000
    C648     C        0.65480    0.32100    0.64890    1.000
    C649     C        0.67550    0.30000    0.67650    1.000
    C650     C        0.64710    0.28200    0.70150    1.000
    H554     H        0.61340    0.28850    0.70020    1.000
    C651     C        0.66800    0.25580    0.72800    1.000
    H555     H        0.64860    0.24540    0.74480    1.000
    C652     C        0.71740    0.24430    0.73010    1.000
    H556     H        0.73160    0.22380    0.74810    1.000
    C653     C        0.74570    0.26330    0.70560    1.000
    H557     H        0.77940    0.25760    0.70700    1.000
    C654     C        0.72480    0.29100    0.67890    1.000
    C655     C        0.91520    0.32920    0.66100    1.000
    C656     C        0.96680    0.32720    0.65400    1.000
    N109     N        0.88300    0.33720    0.63740    1.000
    H558     H        0.89740    0.34230    0.62030    1.000
    O13      O        0.89870    0.32780    0.68660    1.000
    C657     C        0.00830    0.32500    0.67570    1.000
    C658     C        0.01700    0.41400    0.69140    1.000
    H559     H        0.98540    0.44010    0.69690    1.000
    H560     H        0.03120    0.45960    0.67720    1.000
    C659     C        0.04640    0.41700    0.71760    1.000
    H561     H        0.02830    0.38280    0.73320    1.000
    H562     H        0.07480    0.37670    0.71340    1.000
    C660     C        0.06350    0.50500    0.73040    1.000
    H563     H        0.08090    0.53920    0.71460    1.000
    H564     H        0.03490    0.54420    0.73480    1.000
    C661     C        0.09290    0.51000    0.75570    1.000
    H565     H        0.12500    0.48880    0.74940    1.000
    H566     H        0.08090    0.46060    0.76960    1.000
    C662     C        0.10000    0.59600    0.77270    1.000
    H567     H        0.12170    0.58200    0.78910    1.000
    H568     H        0.06920    0.61830    0.78050    1.000
    H569     H        0.11380    0.64670    0.76020    1.000
    C663     C        0.18950    0.30500    0.82690    1.000
    C664     C        0.16910    0.27700    0.80010    1.000
    H570     H        0.13540    0.27700    0.79810    1.000
    C665     C        0.19760    0.25000    0.77600    1.000
    C666     C        0.24710    0.24900    0.77890    1.000
    H571     H        0.26650    0.23020    0.76280    1.000
    C667     C        0.26830    0.27600    0.80500    1.000
    H572     H        0.30210    0.27670    0.80680    1.000
    C668     C        0.23970    0.30300    0.82890    1.000
    C669     C        0.26110    0.32700    0.85600    1.000
    C670     C        0.31100    0.32700    0.85920    1.000
    H573     H        0.33050    0.30950    0.84290    1.000
    C671     C        0.33220    0.35200    0.88570    1.000
    H574     H        0.36600    0.35610    0.88720    1.000
    C672     C        0.30400    0.37230    0.91020    1.000
    H575     H        0.31850    0.38580    0.92870    1.000
    C673     C        0.25440    0.37200    0.90750    1.000
    H576     H        0.23520    0.39050    0.92380    1.000
    C674     C        0.23260    0.34600    0.88060    1.000
    C675     C        0.18140    0.34600    0.87890    1.000
    C676     C        0.15230    0.36200    0.90390    1.000
    H577     H        0.16710    0.37580    0.92220    1.000
    C677     C        0.10280    0.35700    0.90250    1.000
    H578     H        0.08420    0.35860    0.92000    1.000
    C678     C        0.08070    0.35100    0.87460    1.000
    H579     H        0.04730    0.36070    0.87250    1.000
    C679     C        0.10930    0.32900    0.85010    1.000
    H580     H        0.09420    0.31290    0.83200    1.000
    C680     C        0.16000    0.33100    0.85120    1.000
    C681     C        0.12600    0.17700    0.74690    1.000
    C682     C        0.11640    0.13300    0.71950    1.000
    H581     H        0.11030    0.18690    0.70550    1.000
    H582     H        0.14630    0.10150    0.71310    1.000
    C683     C        0.08090    0.06800    0.71550    1.000
    H583     H        0.05170    0.09370    0.72500    1.000
    H584     H        0.08980    0.00790    0.72630    1.000
    C684     C        0.06810    0.04000    0.68450    1.000
    H585     H        0.05280    0.09580    0.67480    1.000
    H586     H        0.09800    0.02530    0.67360    1.000
    C685     C        0.03620    0.95600    0.68180    1.000
    H587     H        0.03720    0.93340    0.66110    1.000
    H588     H        0.00330    0.97800    0.68580    1.000
    C686     C        0.04560    0.87100    0.70080    1.000
    H589     H        0.04870    0.89280    0.72150    1.000
    H590     H        0.07620    0.84090    0.69490    1.000
    C687     C        0.00670    0.79600    0.69890    1.000
    H591     H        0.97800    0.82040    0.70930    1.000
    H592     H        0.99820    0.78560    0.67800    1.000
    C688     C        0.02100    0.70100    0.71230    1.000
    H593     H        0.99430    0.65550    0.71160    1.000
    H594     H        0.03090    0.71080    0.73280    1.000
    H595     H        0.04810    0.67350    0.70120    1.000
    N110     N        0.17430    0.21790    0.74940    1.000
    H596     H        0.19070    0.22360    0.73290    1.000
    O14      O        0.09660    0.16600    0.76700    1.000
    C689     C        0.98430    0.25400    0.67240    1.000
    C690     C        0.03930    0.25400    0.67620    1.000
    C691     C        0.06150    0.18900    0.69260    1.000
    H597     H        0.09260    0.18670    0.68220    1.000
    H598     H        0.06780    0.22860    0.71030    1.000
    C692     C        0.06200    0.10300    0.70440    1.000
    H599     H        0.02670    0.09190    0.70630    1.000
    H600     H        0.07200    0.11950    0.72460    1.000
    C693     C        0.07600    0.01300    0.70280    1.000
    H601     H        0.07880    0.99590    0.72400    1.000
    H602     H        0.11000    0.02250    0.69660    1.000
    C694     C        0.06700    0.92800    0.69130    1.000
    H603     H        0.07880    0.87670    0.70450    1.000
    H604     H        0.08350    0.92230    0.67220    1.000
    H605     H        0.03280    0.92090    0.68850    1.000
    C695     C        0.25390    0.31280    0.84530    1.000
    C696     C        0.30320    0.31180    0.84190    1.000
    H606     H        0.31680    0.29260    0.82360    1.000
    C697     C        0.33270    0.33890    0.86510    1.000
    C698     C        0.31250    0.35910    0.89250    1.000
    H607     H        0.33260    0.37370    0.90880    1.000
    C699     C        0.26340    0.35810    0.89620    1.000
    H608     H        0.25000    0.37240    0.91490    1.000
    C700     C        0.23370    0.33600    0.87240    1.000
    C701     C        0.18380    0.33700    0.87550    1.000
    C702     C        0.16320    0.35300    0.90310    1.000
    H609     H        0.18300    0.35820    0.92000    1.000
    C703     C        0.11420    0.36200    0.90620    1.000
    H610     H        0.10070    0.37870    0.92470    1.000
    C704     C        0.08480    0.34600    0.88180    1.000
    H611     H        0.05110    0.34460    0.88410    1.000
    C705     C        0.10510    0.33300    0.85410    1.000
    H612     H        0.08540    0.33270    0.83710    1.000
    C706     C        0.15480    0.32100    0.85110    1.000
    C707     C        0.17550    0.30000    0.82350    1.000
    C708     C        0.14710    0.28200    0.79850    1.000
    H613     H        0.11340    0.28850    0.79980    1.000
    C709     C        0.16800    0.25580    0.77200    1.000
    H614     H        0.14860    0.24540    0.75520    1.000
    C710     C        0.21740    0.24430    0.76990    1.000
    H615     H        0.23160    0.22380    0.75190    1.000
    C711     C        0.24570    0.26330    0.79440    1.000
    H616     H        0.27940    0.25760    0.79300    1.000
    C712     C        0.22480    0.29100    0.82110    1.000
    C713     C        0.41520    0.32920    0.83900    1.000
    C714     C        0.46680    0.32720    0.84600    1.000
    N111     N        0.38300    0.33720    0.86260    1.000
    H617     H        0.39740    0.34230    0.87970    1.000
    O15      O        0.39870    0.32780    0.81340    1.000
    C715     C        0.50830    0.32500    0.82430    1.000
    C716     C        0.51700    0.41400    0.80860    1.000
    H618     H        0.48540    0.44010    0.80310    1.000
    H619     H        0.53120    0.45960    0.82280    1.000
    C717     C        0.54640    0.41700    0.78240    1.000
    H620     H        0.52830    0.38280    0.76680    1.000
    H621     H        0.57480    0.37670    0.78660    1.000
    C718     C        0.56350    0.50500    0.76960    1.000
    H622     H        0.58090    0.53920    0.78540    1.000
    H623     H        0.53490    0.54420    0.76520    1.000
    C719     C        0.59290    0.51000    0.74430    1.000
    H624     H        0.62500    0.48880    0.75060    1.000
    H625     H        0.58090    0.46060    0.73040    1.000
    C720     C        0.60000    0.59600    0.72730    1.000
    H626     H        0.62170    0.58200    0.71090    1.000
    H627     H        0.56920    0.61830    0.71950    1.000
    H628     H        0.61380    0.64670    0.73980    1.000
    C721     C        0.68950    0.30500    0.67310    1.000
    C722     C        0.66910    0.27700    0.69990    1.000
    H629     H        0.63540    0.27700    0.70190    1.000
    C723     C        0.69760    0.25000    0.72400    1.000
    C724     C        0.74710    0.24900    0.72110    1.000
    H630     H        0.76650    0.23020    0.73720    1.000
    C725     C        0.76830    0.27600    0.69500    1.000
    H631     H        0.80210    0.27670    0.69320    1.000
    C726     C        0.73970    0.30300    0.67110    1.000
    C727     C        0.76110    0.32700    0.64400    1.000
    C728     C        0.81100    0.32700    0.64080    1.000
    H632     H        0.83050    0.30950    0.65710    1.000
    C729     C        0.83220    0.35200    0.61430    1.000
    H633     H        0.86600    0.35610    0.61280    1.000
    C730     C        0.80400    0.37230    0.58980    1.000
    H634     H        0.81850    0.38580    0.57130    1.000
    C731     C        0.75440    0.37200    0.59250    1.000
    H635     H        0.73520    0.39050    0.57620    1.000
    C732     C        0.73260    0.34600    0.61940    1.000
    C733     C        0.68140    0.34600    0.62110    1.000
    C734     C        0.65230    0.36200    0.59610    1.000
    H636     H        0.66710    0.37580    0.57780    1.000
    C735     C        0.60280    0.35700    0.59750    1.000
    H637     H        0.58420    0.35860    0.58000    1.000
    C736     C        0.58070    0.35100    0.62540    1.000
    H638     H        0.54730    0.36070    0.62750    1.000
    C737     C        0.60930    0.32900    0.64990    1.000
    H639     H        0.59420    0.31290    0.66800    1.000
    C738     C        0.66000    0.33100    0.64880    1.000
    C739     C        0.62600    0.17700    0.75310    1.000
    C740     C        0.61640    0.13300    0.78050    1.000
    H640     H        0.61030    0.18690    0.79450    1.000
    H641     H        0.64630    0.10150    0.78690    1.000
    C741     C        0.58090    0.06800    0.78450    1.000
    H642     H        0.55170    0.09370    0.77500    1.000
    H643     H        0.58980    0.00790    0.77370    1.000
    C742     C        0.56810    0.04000    0.81550    1.000
    H644     H        0.55280    0.09580    0.82520    1.000
    H645     H        0.59800    0.02530    0.82640    1.000
    C743     C        0.53620    0.95600    0.81820    1.000
    H646     H        0.53720    0.93340    0.83890    1.000
    H647     H        0.50330    0.97800    0.81420    1.000
    C744     C        0.54560    0.87100    0.79920    1.000
    H648     H        0.54870    0.89280    0.77850    1.000
    H649     H        0.57620    0.84090    0.80510    1.000
    C745     C        0.50670    0.79600    0.80110    1.000
    H650     H        0.47800    0.82040    0.79070    1.000
    H651     H        0.49820    0.78560    0.82200    1.000
    C746     C        0.52100    0.70100    0.78770    1.000
    H652     H        0.49430    0.65550    0.78840    1.000
    H653     H        0.53090    0.71080    0.76720    1.000
    H654     H        0.54810    0.67350    0.79880    1.000
    N112     N        0.67430    0.21790    0.75060    1.000
    H655     H        0.69070    0.22360    0.76710    1.000
    O16      O        0.59660    0.16600    0.73300    1.000
    C747     C        0.48430    0.25400    0.82760    1.000
    C748     C        0.53930    0.25400    0.82380    1.000
    C749     C        0.56150    0.18900    0.80740    1.000
    H656     H        0.59260    0.18670    0.81780    1.000
    H657     H        0.56780    0.22860    0.78970    1.000
    C750     C        0.56200    0.10300    0.79560    1.000
    H658     H        0.52670    0.09190    0.79370    1.000
    H659     H        0.57200    0.11950    0.77540    1.000
    C751     C        0.57600    0.01300    0.79720    1.000
    H660     H        0.57880    0.99590    0.77600    1.000
    H661     H        0.61000    0.02250    0.80340    1.000
    C752     C        0.56700    0.92800    0.80870    1.000
    H662     H        0.57880    0.87670    0.79550    1.000
    H663     H        0.58350    0.92230    0.82780    1.000
    H664     H        0.53280    0.92090    0.81150    1.000
