# CIF file generated by openbabel 3.1.0, see https://openbabel.org
data_I
_chemical_name_common 'image0'
_cell_length_a 15.6597
_cell_length_b 15.6597
_cell_length_c 15.6597
_cell_angle_alpha 90
_cell_angle_beta 90
_cell_angle_gamma 90
_space_group_name_H-M_alt 'P 1'
_space_group_name_Hall 'P 1'
loop_
    _symmetry_equiv_pos_as_xyz
    x,y,z
loop_
    _atom_site_label
    _atom_site_type_symbol
    _atom_site_fract_x
    _atom_site_fract_y
    _atom_site_fract_z
    _atom_site_occupancy
    N1       N        0.58526    0.19451    0.55729    1.000
    C1       C        0.58270    0.13664    0.48715    1.000
    C2       C        0.51760    0.14270    0.42820    1.000
    H1       H        0.47760    0.18640    0.43180    1.000
    C3       C        0.67150    0.46300    0.95400    1.000
    C4       C        0.65430    0.54830    0.96060    1.000
    H2       H        0.60850    0.57120    0.93050    1.000
    C5       C        0.73970    0.43080    0.99960    1.000
    H3       H        0.75360    0.37320    0.99600    1.000
    C6       C        0.70340    0.60070    0.01080    1.000
    H4       H        0.69100    0.65870    0.01390    1.000
    C7       C        0.76990    0.56830    0.05570    1.000
    H5       H        0.80320    0.60390    0.08970    1.000
    C8       C        0.78730    0.48520    0.05100    1.000
    H6       H        0.83230    0.46310    0.08280    1.000
    C9       C        0.65064    0.20800    0.61207    1.000
    H7       H        0.70420    0.18300    0.60640    1.000
    N2       N        0.63011    0.26015    0.67378    1.000
    C10      C        0.54650    0.28180    0.65760    1.000
    H8       H        0.51400    0.31860    0.69110    1.000
    C11      C        0.51850    0.24270    0.58740    1.000
    H9       H        0.46440    0.24720    0.56340    1.000
    N3       N        0.91474    0.80549    0.05729    1.000
    C12      C        0.91730    0.86336    0.98715    1.000
    C13      C        0.98240    0.85730    0.92820    1.000
    H10      H        0.02240    0.81360    0.93180    1.000
    C14      C        0.82850    0.53700    0.45400    1.000
    C15      C        0.84570    0.45170    0.46060    1.000
    H11      H        0.89150    0.42880    0.43050    1.000
    C16      C        0.76030    0.56920    0.49960    1.000
    H12      H        0.74640    0.62680    0.49600    1.000
    C17      C        0.79660    0.39930    0.51080    1.000
    H13      H        0.80900    0.34130    0.51390    1.000
    C18      C        0.73010    0.43170    0.55570    1.000
    H14      H        0.69680    0.39610    0.58970    1.000
    C19      C        0.71270    0.51480    0.55100    1.000
    H15      H        0.66770    0.53690    0.58280    1.000
    C20      C        0.84936    0.79200    0.11207    1.000
    H16      H        0.79580    0.81700    0.10640    1.000
    N4       N        0.86989    0.73985    0.17378    1.000
    C21      C        0.95350    0.71820    0.15760    1.000
    H17      H        0.98600    0.68140    0.19110    1.000
    C22      C        0.98150    0.75730    0.08740    1.000
    H18      H        0.03560    0.75280    0.06340    1.000
    N5       N        0.41474    0.69451    0.94271    1.000
    C23      C        0.41730    0.63664    0.01285    1.000
    C24      C        0.48240    0.64270    0.07180    1.000
    H19      H        0.52240    0.68640    0.06820    1.000
    C25      C        0.32850    0.96300    0.54600    1.000
    C26      C        0.34570    0.04830    0.53940    1.000
    H20      H        0.39150    0.07120    0.56950    1.000
    C27      C        0.26030    0.93080    0.50040    1.000
    H21      H        0.24640    0.87320    0.50400    1.000
    C28      C        0.29660    0.10070    0.48920    1.000
    H22      H        0.30900    0.15870    0.48610    1.000
    C29      C        0.23010    0.06830    0.44430    1.000
    H23      H        0.19680    0.10390    0.41030    1.000
    C30      C        0.21270    0.98520    0.44900    1.000
    H24      H        0.16770    0.96310    0.41720    1.000
    C31      C        0.34936    0.70800    0.88793    1.000
    H25      H        0.29580    0.68300    0.89360    1.000
    N6       N        0.36989    0.76015    0.82622    1.000
    C32      C        0.45350    0.78180    0.84240    1.000
    H26      H        0.48600    0.81860    0.80890    1.000
    C33      C        0.48150    0.74270    0.91260    1.000
    H27      H        0.53560    0.74720    0.93660    1.000
    N7       N        0.08526    0.30549    0.44271    1.000
    C34      C        0.08270    0.36336    0.51285    1.000
    C35      C        0.01760    0.35730    0.57180    1.000
    H28      H        0.97760    0.31360    0.56820    1.000
    C36      C        0.17150    0.03700    0.04600    1.000
    C37      C        0.15430    0.95170    0.03940    1.000
    H29      H        0.10850    0.92880    0.06950    1.000
    C38      C        0.23970    0.06920    0.00040    1.000
    H30      H        0.25360    0.12680    0.00400    1.000
    C39      C        0.20340    0.89930    0.98920    1.000
    H31      H        0.19100    0.84130    0.98610    1.000
    C40      C        0.26990    0.93170    0.94430    1.000
    H32      H        0.30320    0.89610    0.91030    1.000
    C41      C        0.28730    0.01480    0.94900    1.000
    H33      H        0.33230    0.03690    0.91720    1.000
    C42      C        0.15064    0.29200    0.38793    1.000
    H34      H        0.20420    0.31700    0.39360    1.000
    N8       N        0.13011    0.23985    0.32622    1.000
    C43      C        0.04650    0.21820    0.34240    1.000
    H35      H        0.01400    0.18140    0.30890    1.000
    C44      C        0.01850    0.25730    0.41260    1.000
    H36      H        0.96440    0.25280    0.43660    1.000
    N9       N        0.55729    0.58526    0.19451    1.000
    C45      C        0.48715    0.58270    0.13664    1.000
    C46      C        0.42820    0.51760    0.14270    1.000
    H37      H        0.43180    0.47760    0.18640    1.000
    C47      C        0.95400    0.67150    0.46300    1.000
    C48      C        0.96060    0.65430    0.54830    1.000
    H38      H        0.93050    0.60850    0.57120    1.000
    C49      C        0.99960    0.73970    0.43080    1.000
    H39      H        0.99600    0.75360    0.37320    1.000
    C50      C        0.01080    0.70340    0.60070    1.000
    H40      H        0.01390    0.69100    0.65870    1.000
    C51      C        0.05570    0.76990    0.56830    1.000
    H41      H        0.08970    0.80320    0.60390    1.000
    C52      C        0.05100    0.78730    0.48520    1.000
    H42      H        0.08280    0.83230    0.46310    1.000
    C53      C        0.61207    0.65064    0.20800    1.000
    H43      H        0.60640    0.70420    0.18300    1.000
    N10      N        0.67378    0.63011    0.26015    1.000
    C54      C        0.65760    0.54650    0.28180    1.000
    H44      H        0.69110    0.51400    0.31860    1.000
    C55      C        0.58740    0.51850    0.24270    1.000
    H45      H        0.56340    0.46440    0.24720    1.000
    N11      N        0.05729    0.91474    0.80549    1.000
    C56      C        0.98715    0.91730    0.86336    1.000
    C57      C        0.92820    0.98240    0.85730    1.000
    H46      H        0.93180    0.02240    0.81360    1.000
    C58      C        0.45400    0.82850    0.53700    1.000
    C59      C        0.46060    0.84570    0.45170    1.000
    H47      H        0.43050    0.89150    0.42880    1.000
    C60      C        0.49960    0.76030    0.56920    1.000
    H48      H        0.49600    0.74640    0.62680    1.000
    C61      C        0.51080    0.79660    0.39930    1.000
    H49      H        0.51390    0.80900    0.34130    1.000
    C62      C        0.55570    0.73010    0.43170    1.000
    H50      H        0.58970    0.69680    0.39610    1.000
    C63      C        0.55100    0.71270    0.51480    1.000
    H51      H        0.58280    0.66770    0.53690    1.000
    C64      C        0.11207    0.84936    0.79200    1.000
    H52      H        0.10640    0.79580    0.81700    1.000
    N12      N        0.17378    0.86989    0.73985    1.000
    C65      C        0.15760    0.95350    0.71820    1.000
    H53      H        0.19110    0.98600    0.68140    1.000
    C66      C        0.08740    0.98150    0.75730    1.000
    H54      H        0.06340    0.03560    0.75280    1.000
    N13      N        0.94271    0.41474    0.69451    1.000
    C67      C        0.01285    0.41730    0.63664    1.000
    C68      C        0.07180    0.48240    0.64270    1.000
    H55      H        0.06820    0.52240    0.68640    1.000
    C69      C        0.54600    0.32850    0.96300    1.000
    C70      C        0.53940    0.34570    0.04830    1.000
    H56      H        0.56950    0.39150    0.07120    1.000
    C71      C        0.50040    0.26030    0.93080    1.000
    H57      H        0.50400    0.24640    0.87320    1.000
    C72      C        0.48920    0.29660    0.10070    1.000
    H58      H        0.48610    0.30900    0.15870    1.000
    C73      C        0.44430    0.23010    0.06830    1.000
    H59      H        0.41030    0.19680    0.10390    1.000
    C74      C        0.44900    0.21270    0.98520    1.000
    H60      H        0.41720    0.16770    0.96310    1.000
    C75      C        0.88793    0.34936    0.70800    1.000
    H61      H        0.89360    0.29580    0.68300    1.000
    N14      N        0.82622    0.36989    0.76015    1.000
    C76      C        0.84240    0.45350    0.78180    1.000
    H62      H        0.80890    0.48600    0.81860    1.000
    C77      C        0.91260    0.48150    0.74270    1.000
    H63      H        0.93660    0.53560    0.74720    1.000
    N15      N        0.44271    0.08526    0.30549    1.000
    C78      C        0.51285    0.08270    0.36336    1.000
    C79      C        0.57180    0.01760    0.35730    1.000
    H64      H        0.56820    0.97760    0.31360    1.000
    C80      C        0.04600    0.17150    0.03700    1.000
    C81      C        0.03940    0.15430    0.95170    1.000
    H65      H        0.06950    0.10850    0.92880    1.000
    C82      C        0.00040    0.23970    0.06920    1.000
    H66      H        0.00400    0.25360    0.12680    1.000
    C83      C        0.98920    0.20340    0.89930    1.000
    H67      H        0.98610    0.19100    0.84130    1.000
    C84      C        0.94430    0.26990    0.93170    1.000
    H68      H        0.91030    0.30320    0.89610    1.000
    C85      C        0.94900    0.28730    0.01480    1.000
    H69      H        0.91720    0.33230    0.03690    1.000
    C86      C        0.38793    0.15064    0.29200    1.000
    H70      H        0.39360    0.20420    0.31700    1.000
    N16      N        0.32622    0.13011    0.23985    1.000
    C87      C        0.34240    0.04650    0.21820    1.000
    H71      H        0.30890    0.01400    0.18140    1.000
    C88      C        0.41260    0.01850    0.25730    1.000
    H72      H        0.43660    0.96440    0.25280    1.000
    N17      N        0.19451    0.55729    0.58526    1.000
    C89      C        0.13664    0.48715    0.58270    1.000
    C90      C        0.14270    0.42820    0.51760    1.000
    H73      H        0.18640    0.43180    0.47760    1.000
    C91      C        0.46300    0.95400    0.67150    1.000
    C92      C        0.54830    0.96060    0.65430    1.000
    H74      H        0.57120    0.93050    0.60850    1.000
    C93      C        0.43080    0.99960    0.73970    1.000
    H75      H        0.37320    0.99600    0.75360    1.000
    C94      C        0.60070    0.01080    0.70340    1.000
    H76      H        0.65870    0.01390    0.69100    1.000
    C95      C        0.56830    0.05570    0.76990    1.000
    H77      H        0.60390    0.08970    0.80320    1.000
    C96      C        0.48520    0.05100    0.78730    1.000
    H78      H        0.46310    0.08280    0.83230    1.000
    C97      C        0.20800    0.61207    0.65064    1.000
    H79      H        0.18300    0.60640    0.70420    1.000
    N18      N        0.26015    0.67378    0.63011    1.000
    C98      C        0.28180    0.65760    0.54650    1.000
    H80      H        0.31860    0.69110    0.51400    1.000
    C99      C        0.24270    0.58740    0.51850    1.000
    H81      H        0.24720    0.56340    0.46440    1.000
    N19      N        0.80549    0.05729    0.91474    1.000
    C100     C        0.86336    0.98715    0.91730    1.000
    C101     C        0.85730    0.92820    0.98240    1.000
    H82      H        0.81360    0.93180    0.02240    1.000
    C102     C        0.53700    0.45400    0.82850    1.000
    C103     C        0.45170    0.46060    0.84570    1.000
    H83      H        0.42880    0.43050    0.89150    1.000
    C104     C        0.56920    0.49960    0.76030    1.000
    H84      H        0.62680    0.49600    0.74640    1.000
    C105     C        0.39930    0.51080    0.79660    1.000
    H85      H        0.34130    0.51390    0.80900    1.000
    C106     C        0.43170    0.55570    0.73010    1.000
    H86      H        0.39610    0.58970    0.69680    1.000
    C107     C        0.51480    0.55100    0.71270    1.000
    H87      H        0.53690    0.58280    0.66770    1.000
    C108     C        0.79200    0.11207    0.84936    1.000
    H88      H        0.81700    0.10640    0.79580    1.000
    N20      N        0.73985    0.17378    0.86989    1.000
    C109     C        0.71820    0.15760    0.95350    1.000
    H89      H        0.68140    0.19110    0.98600    1.000
    C110     C        0.75730    0.08740    0.98150    1.000
    H90      H        0.75280    0.06340    0.03560    1.000
    N21      N        0.69451    0.94271    0.41474    1.000
    C111     C        0.63664    0.01285    0.41730    1.000
    C112     C        0.64270    0.07180    0.48240    1.000
    H91      H        0.68640    0.06820    0.52240    1.000
    C113     C        0.96300    0.54600    0.32850    1.000
    C114     C        0.04830    0.53940    0.34570    1.000
    H92      H        0.07120    0.56950    0.39150    1.000
    C115     C        0.93080    0.50040    0.26030    1.000
    H93      H        0.87320    0.50400    0.24640    1.000
    C116     C        0.10070    0.48920    0.29660    1.000
    H94      H        0.15870    0.48610    0.30900    1.000
    C117     C        0.06830    0.44430    0.23010    1.000
    H95      H        0.10390    0.41030    0.19680    1.000
    C118     C        0.98520    0.44900    0.21270    1.000
    H96      H        0.96310    0.41720    0.16770    1.000
    C119     C        0.70800    0.88793    0.34936    1.000
    H97      H        0.68300    0.89360    0.29580    1.000
    N22      N        0.76015    0.82622    0.36989    1.000
    C120     C        0.78180    0.84240    0.45350    1.000
    H98      H        0.81860    0.80890    0.48600    1.000
    C121     C        0.74270    0.91260    0.48150    1.000
    H99      H        0.74720    0.93660    0.53560    1.000
    N23      N        0.30549    0.44271    0.08526    1.000
    C122     C        0.36336    0.51285    0.08270    1.000
    C123     C        0.35730    0.57180    0.01760    1.000
    H100     H        0.31360    0.56820    0.97760    1.000
    C124     C        0.03700    0.04600    0.17150    1.000
    C125     C        0.95170    0.03940    0.15430    1.000
    H101     H        0.92880    0.06950    0.10850    1.000
    C126     C        0.06920    0.00040    0.23970    1.000
    H102     H        0.12680    0.00400    0.25360    1.000
    C127     C        0.89930    0.98920    0.20340    1.000
    H103     H        0.84130    0.98610    0.19100    1.000
    C128     C        0.93170    0.94430    0.26990    1.000
    H104     H        0.89610    0.91030    0.30320    1.000
    C129     C        0.01480    0.94900    0.28730    1.000
    H105     H        0.03690    0.91720    0.33230    1.000
    C130     C        0.29200    0.38793    0.15064    1.000
    H106     H        0.31700    0.39360    0.20420    1.000
    N24      N        0.23985    0.32622    0.13011    1.000
    C131     C        0.21820    0.34240    0.04650    1.000
    H107     H        0.18140    0.30890    0.01400    1.000
    C132     C        0.25730    0.41260    0.01850    1.000
    H108     H        0.25280    0.43660    0.96440    1.000
    Ag1      Ag       0.70214    0.29786    0.79786    1.000
    P1       P        0.61228    0.38772    0.88772    1.000
    Ag2      Ag       0.79786    0.70214    0.29786    1.000
    P2       P        0.88772    0.61228    0.38772    1.000
    Ag3      Ag       0.29786    0.79786    0.70214    1.000
    P3       P        0.38772    0.88772    0.61228    1.000
    Ag4      Ag       0.20214    0.20214    0.20214    1.000
    P4       P        0.11228    0.11228    0.11228    1.000
