# CIF file generated by openbabel 3.1.0, see https://openbabel.org
data_I
_chemical_name_common 'image0'
_cell_length_a 23.649
_cell_length_b 15.7654
_cell_length_c 16.2182
_cell_angle_alpha 90
_cell_angle_beta 124.272
_cell_angle_gamma 90
_space_group_name_H-M_alt 'P 1'
_space_group_name_Hall 'P 1'
loop_
    _symmetry_equiv_pos_as_xyz
    x,y,z
loop_
    _atom_site_label
    _atom_site_type_symbol
    _atom_site_fract_x
    _atom_site_fract_y
    _atom_site_fract_z
    _atom_site_occupancy
    Nd1      Nd       0.68931    0.32871    0.87863    1.000
    C1       C        0.40210    0.22260    0.46970    1.000
    C2       C        0.41620    0.18760    0.40410    1.000
    H1       H        0.38070    0.16210    0.34370    1.000
    C3       C        0.48230    0.19040    0.42770    1.000
    C4       C        0.53430    0.22780    0.51460    1.000
    H2       H        0.57920    0.23060    0.52900    1.000
    C5       C        0.52070    0.26150    0.58140    1.000
    C6       C        0.45470    0.25820    0.55930    1.000
    H3       H        0.44560    0.28010    0.60520    1.000
    C7       C        0.45480    0.09470    0.29920    1.000
    C8       C        0.40140    0.11100    0.20120    1.000
    C9       C        0.35990    0.04490    0.14060    1.000
    H4       H        0.32300    0.05620    0.07380    1.000
    C10      C        0.37160    0.96270    0.17670    1.000
    C11      C        0.42720    0.94720    0.27370    1.000
    H5       H        0.43680    0.89080    0.29860    1.000
    C12      C        0.46860    0.01260    0.33420    1.000
    H6       H        0.50660    0.00090    0.40010    1.000
    C13      C        0.32940    0.22080    0.43920    1.000
    C14      C        0.32440    0.89220    0.11310    1.000
    C15      C        0.57820    0.29810    0.67740    1.000
    N1       N        0.38460    0.19620    0.15820    1.000
    O1       O        0.31220    0.26050    0.48990    1.000
    O2       O        0.28684    0.17900    0.36300    1.000
    O3       O        0.40750    0.25720    0.21370    1.000
    O4       O        0.34830    0.20270    0.06720    1.000
    O5       O        0.27962    0.90910    0.02340    1.000
    O6       O        0.33320    0.82240    0.15610    1.000
    O7       O        0.63704    0.30110    0.69470    1.000
    O8       O        0.56653    0.32400    0.74070    1.000
    O9       O        0.49892    0.15800    0.36410    1.000
    Nd2      Nd       0.18931    0.82871    0.87863    1.000
    C16      C        0.90210    0.72260    0.46970    1.000
    C17      C        0.91620    0.68760    0.40410    1.000
    H7       H        0.88070    0.66210    0.34370    1.000
    C18      C        0.98230    0.69040    0.42770    1.000
    C19      C        0.03430    0.72780    0.51460    1.000
    H8       H        0.07920    0.73060    0.52900    1.000
    C20      C        0.02070    0.76150    0.58140    1.000
    C21      C        0.95470    0.75820    0.55930    1.000
    H9       H        0.94560    0.78010    0.60520    1.000
    C22      C        0.95480    0.59470    0.29920    1.000
    C23      C        0.90140    0.61100    0.20120    1.000
    C24      C        0.85990    0.54490    0.14060    1.000
    H10      H        0.82300    0.55620    0.07380    1.000
    C25      C        0.87160    0.46270    0.17670    1.000
    C26      C        0.92720    0.44720    0.27370    1.000
    H11      H        0.93680    0.39080    0.29860    1.000
    C27      C        0.96860    0.51260    0.33420    1.000
    H12      H        0.00660    0.50090    0.40010    1.000
    C28      C        0.82940    0.72080    0.43920    1.000
    C29      C        0.82440    0.39220    0.11310    1.000
    C30      C        0.07820    0.79810    0.67740    1.000
    N2       N        0.88460    0.69620    0.15820    1.000
    O10      O        0.81220    0.76050    0.48990    1.000
    O11      O        0.78684    0.67900    0.36300    1.000
    O12      O        0.90750    0.75720    0.21370    1.000
    O13      O        0.84830    0.70270    0.06720    1.000
    O14      O        0.77962    0.40910    0.02340    1.000
    O15      O        0.83320    0.32240    0.15610    1.000
    O16      O        0.13704    0.80110    0.69470    1.000
    O17      O        0.06653    0.82400    0.74070    1.000
    O18      O        0.99892    0.65800    0.36410    1.000
    Nd3      Nd       0.31069    0.32871    0.62137    1.000
    C31      C        0.59790    0.22260    0.03030    1.000
    C32      C        0.58380    0.18760    0.09590    1.000
    H13      H        0.61930    0.16210    0.15630    1.000
    C33      C        0.51770    0.19040    0.07230    1.000
    C34      C        0.46570    0.22780    0.98540    1.000
    H14      H        0.42080    0.23060    0.97100    1.000
    C35      C        0.47930    0.26150    0.91860    1.000
    C36      C        0.54530    0.25820    0.94070    1.000
    H15      H        0.55440    0.28010    0.89480    1.000
    C37      C        0.54520    0.09470    0.20080    1.000
    C38      C        0.59860    0.11100    0.29880    1.000
    C39      C        0.64010    0.04490    0.35940    1.000
    H16      H        0.67700    0.05620    0.42620    1.000
    C40      C        0.62840    0.96270    0.32330    1.000
    C41      C        0.57280    0.94720    0.22630    1.000
    H17      H        0.56320    0.89080    0.20140    1.000
    C42      C        0.53140    0.01260    0.16580    1.000
    H18      H        0.49340    0.00090    0.09990    1.000
    C43      C        0.67060    0.22080    0.06080    1.000
    C44      C        0.67560    0.89220    0.38690    1.000
    C45      C        0.42180    0.29810    0.82260    1.000
    N3       N        0.61540    0.19620    0.34180    1.000
    O19      O        0.68780    0.26050    0.01010    1.000
    O20      O        0.71316    0.17900    0.13700    1.000
    O21      O        0.59250    0.25720    0.28630    1.000
    O22      O        0.65170    0.20270    0.43280    1.000
    O23      O        0.72038    0.90910    0.47660    1.000
    O24      O        0.66680    0.82240    0.34390    1.000
    O25      O        0.36296    0.30110    0.80530    1.000
    O26      O        0.43347    0.32400    0.75930    1.000
    O27      O        0.50108    0.15800    0.13590    1.000
    Nd4      Nd       0.81069    0.82871    0.62137    1.000
    C46      C        0.09790    0.72260    0.03030    1.000
    C47      C        0.08380    0.68760    0.09590    1.000
    H19      H        0.11930    0.66210    0.15630    1.000
    C48      C        0.01770    0.69040    0.07230    1.000
    C49      C        0.96570    0.72780    0.98540    1.000
    H20      H        0.92080    0.73060    0.97100    1.000
    C50      C        0.97930    0.76150    0.91860    1.000
    C51      C        0.04530    0.75820    0.94070    1.000
    H21      H        0.05440    0.78010    0.89480    1.000
    C52      C        0.04520    0.59470    0.20080    1.000
    C53      C        0.09860    0.61100    0.29880    1.000
    C54      C        0.14010    0.54490    0.35940    1.000
    H22      H        0.17700    0.55620    0.42620    1.000
    C55      C        0.12840    0.46270    0.32330    1.000
    C56      C        0.07280    0.44720    0.22630    1.000
    H23      H        0.06320    0.39080    0.20140    1.000
    C57      C        0.03140    0.51260    0.16580    1.000
    H24      H        0.99340    0.50090    0.09990    1.000
    C58      C        0.17060    0.72080    0.06080    1.000
    C59      C        0.17560    0.39220    0.38690    1.000
    C60      C        0.92180    0.79810    0.82260    1.000
    N4       N        0.11540    0.69620    0.34180    1.000
    O28      O        0.18780    0.76050    0.01010    1.000
    O29      O        0.21316    0.67900    0.13700    1.000
    O30      O        0.09250    0.75720    0.28630    1.000
    O31      O        0.15170    0.70270    0.43280    1.000
    O32      O        0.22038    0.40910    0.47660    1.000
    O33      O        0.16680    0.32240    0.34390    1.000
    O34      O        0.86296    0.80110    0.80530    1.000
    O35      O        0.93347    0.82400    0.75930    1.000
    O36      O        0.00108    0.65800    0.13590    1.000
    Nd5      Nd       0.31069    0.67129    0.12137    1.000
    C61      C        0.59790    0.77740    0.53030    1.000
    C62      C        0.58380    0.81240    0.59590    1.000
    H25      H        0.61930    0.83790    0.65630    1.000
    C63      C        0.51770    0.80960    0.57230    1.000
    C64      C        0.46570    0.77220    0.48540    1.000
    H26      H        0.42080    0.76940    0.47100    1.000
    C65      C        0.47930    0.73850    0.41860    1.000
    C66      C        0.54530    0.74180    0.44070    1.000
    H27      H        0.55440    0.71990    0.39480    1.000
    C67      C        0.54520    0.90530    0.70080    1.000
    C68      C        0.59860    0.88900    0.79880    1.000
    C69      C        0.64010    0.95510    0.85940    1.000
    H28      H        0.67700    0.94380    0.92620    1.000
    C70      C        0.62840    0.03730    0.82330    1.000
    C71      C        0.57280    0.05280    0.72630    1.000
    H29      H        0.56320    0.10920    0.70140    1.000
    C72      C        0.53140    0.98740    0.66580    1.000
    H30      H        0.49340    0.99910    0.59990    1.000
    C73      C        0.67060    0.77920    0.56080    1.000
    C74      C        0.67560    0.10780    0.88690    1.000
    C75      C        0.42180    0.70190    0.32260    1.000
    N5       N        0.61540    0.80380    0.84180    1.000
    O37      O        0.68780    0.73950    0.51010    1.000
    O38      O        0.71316    0.82100    0.63700    1.000
    O39      O        0.59250    0.74280    0.78630    1.000
    O40      O        0.65170    0.79730    0.93280    1.000
    O41      O        0.72038    0.09090    0.97660    1.000
    O42      O        0.66680    0.17760    0.84390    1.000
    O43      O        0.36296    0.69890    0.30530    1.000
    O44      O        0.43347    0.67600    0.25930    1.000
    O45      O        0.50108    0.84200    0.63590    1.000
    Nd6      Nd       0.81069    0.17129    0.12137    1.000
    C76      C        0.09790    0.27740    0.53030    1.000
    C77      C        0.08380    0.31240    0.59590    1.000
    H31      H        0.11930    0.33790    0.65630    1.000
    C78      C        0.01770    0.30960    0.57230    1.000
    C79      C        0.96570    0.27220    0.48540    1.000
    H32      H        0.92080    0.26940    0.47100    1.000
    C80      C        0.97930    0.23850    0.41860    1.000
    C81      C        0.04530    0.24180    0.44070    1.000
    H33      H        0.05440    0.21990    0.39480    1.000
    C82      C        0.04520    0.40530    0.70080    1.000
    C83      C        0.09860    0.38900    0.79880    1.000
    C84      C        0.14010    0.45510    0.85940    1.000
    H34      H        0.17700    0.44380    0.92620    1.000
    C85      C        0.12840    0.53730    0.82330    1.000
    C86      C        0.07280    0.55280    0.72630    1.000
    H35      H        0.06320    0.60920    0.70140    1.000
    C87      C        0.03140    0.48740    0.66580    1.000
    H36      H        0.99340    0.49910    0.59990    1.000
    C88      C        0.17060    0.27920    0.56080    1.000
    C89      C        0.17560    0.60780    0.88690    1.000
    C90      C        0.92180    0.20190    0.32260    1.000
    N6       N        0.11540    0.30380    0.84180    1.000
    O46      O        0.18780    0.23950    0.51010    1.000
    O47      O        0.21316    0.32100    0.63700    1.000
    O48      O        0.09250    0.24280    0.78630    1.000
    O49      O        0.15170    0.29730    0.93280    1.000
    O50      O        0.22038    0.59090    0.97660    1.000
    O51      O        0.16680    0.67760    0.84390    1.000
    O52      O        0.86296    0.19890    0.30530    1.000
    O53      O        0.93347    0.17600    0.25930    1.000
    O54      O        0.00108    0.34200    0.63590    1.000
    Nd7      Nd       0.68931    0.67129    0.37863    1.000
    C91      C        0.40210    0.77740    0.96970    1.000
    C92      C        0.41620    0.81240    0.90410    1.000
    H37      H        0.38070    0.83790    0.84370    1.000
    C93      C        0.48230    0.80960    0.92770    1.000
    C94      C        0.53430    0.77220    0.01460    1.000
    H38      H        0.57920    0.76940    0.02900    1.000
    C95      C        0.52070    0.73850    0.08140    1.000
    C96      C        0.45470    0.74180    0.05930    1.000
    H39      H        0.44560    0.71990    0.10520    1.000
    C97      C        0.45480    0.90530    0.79920    1.000
    C98      C        0.40140    0.88900    0.70120    1.000
    C99      C        0.35990    0.95510    0.64060    1.000
    H40      H        0.32300    0.94380    0.57380    1.000
    C100     C        0.37160    0.03730    0.67670    1.000
    C101     C        0.42720    0.05280    0.77370    1.000
    H41      H        0.43680    0.10920    0.79860    1.000
    C102     C        0.46860    0.98740    0.83420    1.000
    H42      H        0.50660    0.99910    0.90010    1.000
    C103     C        0.32940    0.77920    0.93920    1.000
    C104     C        0.32440    0.10780    0.61310    1.000
    C105     C        0.57820    0.70190    0.17740    1.000
    N7       N        0.38460    0.80380    0.65820    1.000
    O55      O        0.31220    0.73950    0.98990    1.000
    O56      O        0.28684    0.82100    0.86300    1.000
    O57      O        0.40750    0.74280    0.71370    1.000
    O58      O        0.34830    0.79730    0.56720    1.000
    O59      O        0.27962    0.09090    0.52340    1.000
    O60      O        0.33320    0.17760    0.65610    1.000
    O61      O        0.63704    0.69890    0.19470    1.000
    O62      O        0.56653    0.67600    0.24070    1.000
    O63      O        0.49892    0.84200    0.86410    1.000
    Nd8      Nd       0.18931    0.17129    0.37863    1.000
    C106     C        0.90210    0.27740    0.96970    1.000
    C107     C        0.91620    0.31240    0.90410    1.000
    H43      H        0.88070    0.33790    0.84370    1.000
    C108     C        0.98230    0.30960    0.92770    1.000
    C109     C        0.03430    0.27220    0.01460    1.000
    H44      H        0.07920    0.26940    0.02900    1.000
    C110     C        0.02070    0.23850    0.08140    1.000
    C111     C        0.95470    0.24180    0.05930    1.000
    H45      H        0.94560    0.21990    0.10520    1.000
    C112     C        0.95480    0.40530    0.79920    1.000
    C113     C        0.90140    0.38900    0.70120    1.000
    C114     C        0.85990    0.45510    0.64060    1.000
    H46      H        0.82300    0.44380    0.57380    1.000
    C115     C        0.87160    0.53730    0.67670    1.000
    C116     C        0.92720    0.55280    0.77370    1.000
    H47      H        0.93680    0.60920    0.79860    1.000
    C117     C        0.96860    0.48740    0.83420    1.000
    H48      H        0.00660    0.49910    0.90010    1.000
    C118     C        0.82940    0.27920    0.93920    1.000
    C119     C        0.82440    0.60780    0.61310    1.000
    C120     C        0.07820    0.20190    0.17740    1.000
    N8       N        0.88460    0.30380    0.65820    1.000
    O64      O        0.81220    0.23950    0.98990    1.000
    O65      O        0.78684    0.32100    0.86300    1.000
    O66      O        0.90750    0.24280    0.71370    1.000
    O67      O        0.84830    0.29730    0.56720    1.000
    O68      O        0.77962    0.59090    0.52340    1.000
    O69      O        0.83320    0.67760    0.65610    1.000
    O70      O        0.13704    0.19890    0.19470    1.000
    O71      O        0.06653    0.17600    0.24070    1.000
    O72      O        0.99892    0.34200    0.86410    1.000
