# CIF file generated by openbabel 3.1.0, see https://openbabel.org
data_I
_chemical_name_common 'image0'
_cell_length_a 24.3021
_cell_length_b 16.0142
_cell_length_c 22.0018
_cell_angle_alpha 90
_cell_angle_beta 100.138
_cell_angle_gamma 90
_space_group_name_H-M_alt 'P 1'
_space_group_name_Hall 'P 1'
loop_
    _symmetry_equiv_pos_as_xyz
    x,y,z
loop_
    _atom_site_label
    _atom_site_type_symbol
    _atom_site_fract_x
    _atom_site_fract_y
    _atom_site_fract_z
    _atom_site_occupancy
    C1       C        0.30010    0.22966    0.72446    1.000
    O1       O        0.26560    0.92992    0.12461    1.000
    C2       C        0.28916    0.61908    0.05794    1.000
    C3       C        0.29323    0.98710    0.15320    1.000
    O2       O        0.30017    0.99330    0.21033    1.000
    C4       C        0.31058    0.53429    0.04592    1.000
    C5       C        0.30152    0.46747    0.08196    1.000
    H1       H        0.28190    0.47520    0.11420    1.000
    C6       C        0.34061    0.52076    0.99891    1.000
    H2       H        0.34720    0.56510    0.97390    1.000
    C7       C        0.31952    0.23781    0.79317    1.000
    C8       C        0.39327    0.23210    0.88146    1.000
    H3       H        0.43080    0.22270    0.89760    1.000
    C9       C        0.28279    0.26100    0.83139    1.000
    H4       H        0.24540    0.27090    0.81500    1.000
    Nd1      Nd       0.75819    0.28843    0.09545    1.000
    O3       O        0.28413    0.63813    0.11168    1.000
    Si1      Si       0.38008    0.27093    0.00599    1.000
    O4       O        0.66542    0.21016    0.06499    1.000
    O5       O        0.33449    0.21663    0.68916    1.000
    O6       O        0.27771    0.67126    0.01390    1.000
    O7       O        0.66113    0.33432    0.10627    1.000
    C10      C        0.37461    0.22280    0.81820    1.000
    H5       H        0.39950    0.20640    0.79280    1.000
    O8       O        0.24801    0.23670    0.70389    1.000
    C11      C        0.45784    0.27223    0.02777    1.000
    C12      C        0.35712    0.25526    0.92107    1.000
    C13      C        0.35402    0.18495    0.04979    1.000
    C14      C        0.35187    0.37494    0.02440    1.000
    C15      C        0.63695    0.27131    0.07935    1.000
    C16      C        0.57512    0.27032    0.06243    1.000
    C17      C        0.54652    0.20030    0.03882    1.000
    H6       H        0.56620    0.15170    0.03380    1.000
    C18      C        0.30311    0.05580    0.05592    1.000
    H7       H        0.28140    0.01320    0.03540    1.000
    C19      C        0.48913    0.20073    0.02236    1.000
    H8       H        0.47080    0.15200    0.00730    1.000
    C20      C        0.31605    0.05440    0.11874    1.000
    C21      C        0.36086    0.44327    0.98866    1.000
    H9       H        0.38120    0.43620    0.95690    1.000
    C22      C        0.36719    0.18200    0.11413    1.000
    H10      H        0.38980    0.22350    0.13500    1.000
    C23      C        0.48753    0.34289    0.05125    1.000
    H11      H        0.46810    0.39200    0.05550    1.000
    C24      C        0.30190    0.26940    0.89432    1.000
    H12      H        0.27670    0.28510    0.91950    1.000
    C25      C        0.32103    0.38939    0.07121    1.000
    H13      H        0.31350    0.34500    0.09570    1.000
    C26      C        0.34750    0.11880    0.14784    1.000
    H14      H        0.35570    0.12020    0.19070    1.000
    C27      C        0.54500    0.34230    0.06839    1.000
    H15      H        0.56360    0.39060    0.08400    1.000
    C28      C        0.32192    0.12010    0.02171    1.000
    H16      H        0.31250    0.11910    0.97890    1.000
    C29      C        0.80010    0.72966    0.72446    1.000
    O9       O        0.76560    0.42992    0.12461    1.000
    C30      C        0.78916    0.11908    0.05794    1.000
    C31      C        0.79323    0.48710    0.15320    1.000
    O10      O        0.80017    0.49330    0.21033    1.000
    C32      C        0.81058    0.03429    0.04592    1.000
    C33      C        0.80152    0.96747    0.08196    1.000
    H17      H        0.78190    0.97520    0.11420    1.000
    C34      C        0.84061    0.02076    0.99891    1.000
    H18      H        0.84720    0.06510    0.97390    1.000
    C35      C        0.81952    0.73781    0.79317    1.000
    C36      C        0.89327    0.73210    0.88146    1.000
    H19      H        0.93080    0.72270    0.89760    1.000
    C37      C        0.78279    0.76100    0.83139    1.000
    H20      H        0.74540    0.77090    0.81500    1.000
    Nd2      Nd       0.25819    0.78843    0.09545    1.000
    O11      O        0.78413    0.13813    0.11168    1.000
    Si2      Si       0.88008    0.77093    0.00599    1.000
    O12      O        0.16542    0.71016    0.06499    1.000
    O13      O        0.83449    0.71663    0.68916    1.000
    O14      O        0.77771    0.17126    0.01390    1.000
    O15      O        0.16113    0.83432    0.10627    1.000
    C38      C        0.87461    0.72280    0.81820    1.000
    H21      H        0.89950    0.70640    0.79280    1.000
    O16      O        0.74801    0.73670    0.70389    1.000
    C39      C        0.95784    0.77223    0.02777    1.000
    C40      C        0.85712    0.75526    0.92107    1.000
    C41      C        0.85402    0.68495    0.04979    1.000
    C42      C        0.85187    0.87494    0.02440    1.000
    C43      C        0.13695    0.77131    0.07935    1.000
    C44      C        0.07512    0.77032    0.06243    1.000
    C45      C        0.04652    0.70030    0.03882    1.000
    H22      H        0.06620    0.65170    0.03380    1.000
    C46      C        0.80311    0.55580    0.05592    1.000
    H23      H        0.78140    0.51320    0.03540    1.000
    C47      C        0.98913    0.70073    0.02236    1.000
    H24      H        0.97080    0.65200    0.00730    1.000
    C48      C        0.81605    0.55440    0.11874    1.000
    C49      C        0.86086    0.94327    0.98866    1.000
    H25      H        0.88120    0.93620    0.95690    1.000
    C50      C        0.86719    0.68200    0.11413    1.000
    H26      H        0.88980    0.72350    0.13500    1.000
    C51      C        0.98753    0.84289    0.05125    1.000
    H27      H        0.96810    0.89200    0.05550    1.000
    C52      C        0.80190    0.76940    0.89432    1.000
    H28      H        0.77670    0.78510    0.91950    1.000
    C53      C        0.82103    0.88939    0.07121    1.000
    H29      H        0.81350    0.84500    0.09570    1.000
    C54      C        0.84750    0.61880    0.14784    1.000
    H30      H        0.85570    0.62020    0.19070    1.000
    C55      C        0.04500    0.84230    0.06839    1.000
    H31      H        0.06360    0.89060    0.08400    1.000
    C56      C        0.82192    0.62010    0.02171    1.000
    H32      H        0.81250    0.61910    0.97890    1.000
    C57      C        0.69990    0.22966    0.77554    1.000
    O17      O        0.73440    0.92992    0.37539    1.000
    C58      C        0.71084    0.61908    0.44206    1.000
    C59      C        0.70677    0.98710    0.34680    1.000
    O18      O        0.69983    0.99330    0.28967    1.000
    C60      C        0.68942    0.53429    0.45408    1.000
    C61      C        0.69848    0.46747    0.41804    1.000
    H33      H        0.71810    0.47520    0.38580    1.000
    C62      C        0.65939    0.52076    0.50109    1.000
    H34      H        0.65280    0.56510    0.52610    1.000
    C63      C        0.68048    0.23781    0.70683    1.000
    C64      C        0.60673    0.23210    0.61854    1.000
    H35      H        0.56920    0.22270    0.60240    1.000
    C65      C        0.71721    0.26100    0.66861    1.000
    H36      H        0.75460    0.27090    0.68500    1.000
    Nd3      Nd       0.24181    0.28843    0.40455    1.000
    O19      O        0.71587    0.63813    0.38832    1.000
    Si3      Si       0.61992    0.27093    0.49401    1.000
    O20      O        0.33458    0.21016    0.43501    1.000
    O21      O        0.66551    0.21663    0.81084    1.000
    O22      O        0.72229    0.67126    0.48610    1.000
    O23      O        0.33887    0.33432    0.39373    1.000
    C66      C        0.62539    0.22280    0.68180    1.000
    H37      H        0.60050    0.20640    0.70720    1.000
    O24      O        0.75199    0.23670    0.79611    1.000
    C67      C        0.54216    0.27223    0.47223    1.000
    C68      C        0.64288    0.25526    0.57893    1.000
    C69      C        0.64598    0.18495    0.45021    1.000
    C70      C        0.64813    0.37494    0.47560    1.000
    C71      C        0.36305    0.27131    0.42065    1.000
    C72      C        0.42488    0.27032    0.43757    1.000
    C73      C        0.45348    0.20030    0.46118    1.000
    H38      H        0.43380    0.15170    0.46620    1.000
    C74      C        0.69689    0.05580    0.44408    1.000
    H39      H        0.71860    0.01320    0.46460    1.000
    C75      C        0.51087    0.20073    0.47764    1.000
    H40      H        0.52920    0.15200    0.49270    1.000
    C76      C        0.68395    0.05440    0.38126    1.000
    C77      C        0.63914    0.44327    0.51134    1.000
    H41      H        0.61880    0.43620    0.54310    1.000
    C78      C        0.63281    0.18200    0.38587    1.000
    H42      H        0.61020    0.22350    0.36500    1.000
    C79      C        0.51247    0.34289    0.44875    1.000
    H43      H        0.53190    0.39200    0.44450    1.000
    C80      C        0.69810    0.26940    0.60568    1.000
    H44      H        0.72330    0.28510    0.58050    1.000
    C81      C        0.67897    0.38939    0.42879    1.000
    H45      H        0.68650    0.34500    0.40430    1.000
    C82      C        0.65250    0.11880    0.35216    1.000
    H46      H        0.64430    0.12020    0.30930    1.000
    C83      C        0.45500    0.34230    0.43161    1.000
    H47      H        0.43640    0.39060    0.41600    1.000
    C84      C        0.67808    0.12010    0.47829    1.000
    H48      H        0.68750    0.11910    0.52110    1.000
    C85      C        0.19990    0.72966    0.77554    1.000
    O25      O        0.23440    0.42992    0.37539    1.000
    C86      C        0.21084    0.11908    0.44206    1.000
    C87      C        0.20677    0.48710    0.34680    1.000
    O26      O        0.19983    0.49330    0.28967    1.000
    C88      C        0.18942    0.03429    0.45408    1.000
    C89      C        0.19848    0.96747    0.41804    1.000
    H49      H        0.21810    0.97520    0.38580    1.000
    C90      C        0.15939    0.02076    0.50109    1.000
    H50      H        0.15280    0.06510    0.52610    1.000
    C91      C        0.18048    0.73781    0.70683    1.000
    C92      C        0.10673    0.73210    0.61854    1.000
    H51      H        0.06920    0.72270    0.60240    1.000
    C93      C        0.21721    0.76100    0.66861    1.000
    H52      H        0.25460    0.77090    0.68500    1.000
    Nd4      Nd       0.74181    0.78843    0.40455    1.000
    O27      O        0.21587    0.13813    0.38832    1.000
    Si4      Si       0.11992    0.77093    0.49401    1.000
    O28      O        0.83458    0.71016    0.43501    1.000
    O29      O        0.16551    0.71663    0.81084    1.000
    O30      O        0.22229    0.17126    0.48610    1.000
    O31      O        0.83887    0.83432    0.39373    1.000
    C94      C        0.12539    0.72280    0.68180    1.000
    H53      H        0.10050    0.70640    0.70720    1.000
    O32      O        0.25199    0.73670    0.79611    1.000
    C95      C        0.04216    0.77223    0.47223    1.000
    C96      C        0.14288    0.75526    0.57893    1.000
    C97      C        0.14598    0.68495    0.45021    1.000
    C98      C        0.14813    0.87494    0.47560    1.000
    C99      C        0.86305    0.77131    0.42065    1.000
    C100     C        0.92488    0.77032    0.43757    1.000
    C101     C        0.95348    0.70030    0.46118    1.000
    H54      H        0.93380    0.65170    0.46620    1.000
    C102     C        0.19689    0.55580    0.44408    1.000
    H55      H        0.21860    0.51320    0.46460    1.000
    C103     C        0.01087    0.70073    0.47764    1.000
    H56      H        0.02920    0.65200    0.49270    1.000
    C104     C        0.18395    0.55440    0.38126    1.000
    C105     C        0.13914    0.94327    0.51134    1.000
    H57      H        0.11880    0.93620    0.54310    1.000
    C106     C        0.13281    0.68200    0.38587    1.000
    H58      H        0.11020    0.72350    0.36500    1.000
    C107     C        0.01247    0.84289    0.44875    1.000
    H59      H        0.03190    0.89200    0.44450    1.000
    C108     C        0.19810    0.76940    0.60568    1.000
    H60      H        0.22330    0.78510    0.58050    1.000
    C109     C        0.17897    0.88939    0.42879    1.000
    H61      H        0.18650    0.84500    0.40430    1.000
    C110     C        0.15250    0.61880    0.35216    1.000
    H62      H        0.14430    0.62020    0.30930    1.000
    C111     C        0.95500    0.84230    0.43161    1.000
    H63      H        0.93640    0.89060    0.41600    1.000
    C112     C        0.17808    0.62010    0.47829    1.000
    H64      H        0.18750    0.61910    0.52110    1.000
    C113     C        0.69990    0.77034    0.27554    1.000
    O33      O        0.73440    0.07008    0.87539    1.000
    C114     C        0.71084    0.38092    0.94206    1.000
    C115     C        0.70677    0.01290    0.84680    1.000
    O34      O        0.69983    0.00670    0.78967    1.000
    C116     C        0.68942    0.46571    0.95408    1.000
    C117     C        0.69848    0.53253    0.91804    1.000
    H65      H        0.71810    0.52480    0.88580    1.000
    C118     C        0.65939    0.47924    0.00109    1.000
    H66      H        0.65280    0.43490    0.02610    1.000
    C119     C        0.68048    0.76219    0.20683    1.000
    C120     C        0.60673    0.76790    0.11854    1.000
    H67      H        0.56920    0.77730    0.10240    1.000
    C121     C        0.71721    0.73900    0.16861    1.000
    H68      H        0.75460    0.72910    0.18500    1.000
    Nd5      Nd       0.24181    0.71157    0.90455    1.000
    O35      O        0.71587    0.36187    0.88832    1.000
    Si5      Si       0.61992    0.72907    0.99401    1.000
    O36      O        0.33458    0.78984    0.93501    1.000
    O37      O        0.66551    0.78337    0.31084    1.000
    O38      O        0.72229    0.32874    0.98610    1.000
    O39      O        0.33887    0.66568    0.89373    1.000
    C122     C        0.62539    0.77720    0.18180    1.000
    H69      H        0.60050    0.79360    0.20720    1.000
    O40      O        0.75199    0.76330    0.29611    1.000
    C123     C        0.54216    0.72777    0.97223    1.000
    C124     C        0.64288    0.74474    0.07893    1.000
    C125     C        0.64598    0.81505    0.95021    1.000
    C126     C        0.64813    0.62506    0.97560    1.000
    C127     C        0.36305    0.72869    0.92065    1.000
    C128     C        0.42488    0.72968    0.93757    1.000
    C129     C        0.45348    0.79970    0.96118    1.000
    H70      H        0.43380    0.84830    0.96620    1.000
    C130     C        0.69689    0.94420    0.94408    1.000
    H71      H        0.71860    0.98680    0.96460    1.000
    C131     C        0.51087    0.79927    0.97764    1.000
    H72      H        0.52920    0.84800    0.99270    1.000
    C132     C        0.68395    0.94560    0.88126    1.000
    C133     C        0.63914    0.55673    0.01134    1.000
    H73      H        0.61880    0.56380    0.04310    1.000
    C134     C        0.63281    0.81800    0.88587    1.000
    H74      H        0.61020    0.77650    0.86500    1.000
    C135     C        0.51247    0.65711    0.94875    1.000
    H75      H        0.53190    0.60800    0.94450    1.000
    C136     C        0.69810    0.73060    0.10568    1.000
    H76      H        0.72330    0.71490    0.08050    1.000
    C137     C        0.67897    0.61061    0.92879    1.000
    H77      H        0.68650    0.65500    0.90430    1.000
    C138     C        0.65250    0.88120    0.85216    1.000
    H78      H        0.64430    0.87980    0.80930    1.000
    C139     C        0.45500    0.65770    0.93161    1.000
    H79      H        0.43640    0.60940    0.91600    1.000
    C140     C        0.67808    0.87990    0.97829    1.000
    H80      H        0.68750    0.88090    0.02110    1.000
    C141     C        0.19990    0.27034    0.27554    1.000
    O41      O        0.23440    0.57008    0.87539    1.000
    C142     C        0.21084    0.88092    0.94206    1.000
    C143     C        0.20677    0.51290    0.84680    1.000
    O42      O        0.19983    0.50670    0.78967    1.000
    C144     C        0.18942    0.96571    0.95408    1.000
    C145     C        0.19848    0.03253    0.91804    1.000
    H81      H        0.21810    0.02480    0.88580    1.000
    C146     C        0.15939    0.97924    0.00109    1.000
    H82      H        0.15280    0.93490    0.02610    1.000
    C147     C        0.18048    0.26219    0.20683    1.000
    C148     C        0.10673    0.26790    0.11854    1.000
    H83      H        0.06920    0.27730    0.10240    1.000
    C149     C        0.21721    0.23900    0.16861    1.000
    H84      H        0.25460    0.22910    0.18500    1.000
    Nd6      Nd       0.74181    0.21157    0.90455    1.000
    O43      O        0.21587    0.86187    0.88832    1.000
    Si6      Si       0.11992    0.22907    0.99401    1.000
    O44      O        0.83458    0.28984    0.93501    1.000
    O45      O        0.16551    0.28337    0.31084    1.000
    O46      O        0.22229    0.82874    0.98610    1.000
    O47      O        0.83887    0.16568    0.89373    1.000
    C150     C        0.12539    0.27720    0.18180    1.000
    H85      H        0.10050    0.29360    0.20720    1.000
    O48      O        0.25199    0.26330    0.29611    1.000
    C151     C        0.04216    0.22777    0.97223    1.000
    C152     C        0.14288    0.24474    0.07893    1.000
    C153     C        0.14598    0.31505    0.95021    1.000
    C154     C        0.14813    0.12506    0.97560    1.000
    C155     C        0.86305    0.22869    0.92065    1.000
    C156     C        0.92488    0.22968    0.93757    1.000
    C157     C        0.95348    0.29970    0.96118    1.000
    H86      H        0.93380    0.34830    0.96620    1.000
    C158     C        0.19689    0.44420    0.94408    1.000
    H87      H        0.21860    0.48680    0.96460    1.000
    C159     C        0.01087    0.29927    0.97764    1.000
    H88      H        0.02920    0.34800    0.99270    1.000
    C160     C        0.18395    0.44560    0.88126    1.000
    C161     C        0.13914    0.05673    0.01134    1.000
    H89      H        0.11880    0.06380    0.04310    1.000
    C162     C        0.13281    0.31800    0.88587    1.000
    H90      H        0.11020    0.27650    0.86500    1.000
    C163     C        0.01247    0.15711    0.94875    1.000
    H91      H        0.03190    0.10800    0.94450    1.000
    C164     C        0.19810    0.23060    0.10568    1.000
    H92      H        0.22330    0.21490    0.08050    1.000
    C165     C        0.17897    0.11061    0.92879    1.000
    H93      H        0.18650    0.15500    0.90430    1.000
    C166     C        0.15250    0.38120    0.85216    1.000
    H94      H        0.14430    0.37980    0.80930    1.000
    C167     C        0.95500    0.15770    0.93161    1.000
    H95      H        0.93640    0.10940    0.91600    1.000
    C168     C        0.17808    0.37990    0.97829    1.000
    H96      H        0.18750    0.38090    0.02110    1.000
    C169     C        0.30010    0.77034    0.22446    1.000
    O49      O        0.26560    0.07008    0.62461    1.000
    C170     C        0.28916    0.38092    0.55794    1.000
    C171     C        0.29323    0.01290    0.65320    1.000
    O50      O        0.30017    0.00670    0.71033    1.000
    C172     C        0.31058    0.46571    0.54592    1.000
    C173     C        0.30152    0.53253    0.58196    1.000
    H97      H        0.28190    0.52480    0.61420    1.000
    C174     C        0.34061    0.47924    0.49891    1.000
    H98      H        0.34720    0.43490    0.47390    1.000
    C175     C        0.31952    0.76219    0.29317    1.000
    C176     C        0.39327    0.76790    0.38146    1.000
    H99      H        0.43080    0.77730    0.39760    1.000
    C177     C        0.28279    0.73900    0.33139    1.000
    H100     H        0.24540    0.72910    0.31500    1.000
    Nd7      Nd       0.75819    0.71157    0.59545    1.000
    O51      O        0.28413    0.36187    0.61168    1.000
    Si7      Si       0.38008    0.72907    0.50599    1.000
    O52      O        0.66542    0.78984    0.56499    1.000
    O53      O        0.33449    0.78337    0.18916    1.000
    O54      O        0.27771    0.32874    0.51390    1.000
    O55      O        0.66113    0.66568    0.60627    1.000
    C178     C        0.37461    0.77720    0.31820    1.000
    H101     H        0.39950    0.79360    0.29280    1.000
    O56      O        0.24801    0.76330    0.20389    1.000
    C179     C        0.45784    0.72777    0.52777    1.000
    C180     C        0.35712    0.74474    0.42107    1.000
    C181     C        0.35402    0.81505    0.54979    1.000
    C182     C        0.35187    0.62506    0.52440    1.000
    C183     C        0.63695    0.72869    0.57935    1.000
    C184     C        0.57512    0.72968    0.56243    1.000
    C185     C        0.54652    0.79970    0.53882    1.000
    H102     H        0.56620    0.84830    0.53380    1.000
    C186     C        0.30311    0.94420    0.55592    1.000
    H103     H        0.28140    0.98680    0.53540    1.000
    C187     C        0.48913    0.79927    0.52236    1.000
    H104     H        0.47080    0.84800    0.50730    1.000
    C188     C        0.31605    0.94560    0.61874    1.000
    C189     C        0.36086    0.55673    0.48866    1.000
    H105     H        0.38120    0.56380    0.45690    1.000
    C190     C        0.36719    0.81800    0.61413    1.000
    H106     H        0.38980    0.77650    0.63500    1.000
    C191     C        0.48753    0.65711    0.55125    1.000
    H107     H        0.46810    0.60800    0.55550    1.000
    C192     C        0.30190    0.73060    0.39432    1.000
    H108     H        0.27670    0.71490    0.41950    1.000
    C193     C        0.32103    0.61061    0.57121    1.000
    H109     H        0.31350    0.65500    0.59570    1.000
    C194     C        0.34750    0.88120    0.64784    1.000
    H110     H        0.35570    0.87980    0.69070    1.000
    C195     C        0.54500    0.65770    0.56839    1.000
    H111     H        0.56360    0.60940    0.58400    1.000
    C196     C        0.32192    0.87990    0.52171    1.000
    H112     H        0.31250    0.88090    0.47890    1.000
    C197     C        0.80010    0.27034    0.22446    1.000
    O57      O        0.76560    0.57008    0.62461    1.000
    C198     C        0.78916    0.88092    0.55794    1.000
    C199     C        0.79323    0.51290    0.65320    1.000
    O58      O        0.80017    0.50670    0.71033    1.000
    C200     C        0.81058    0.96571    0.54592    1.000
    C201     C        0.80152    0.03253    0.58196    1.000
    H113     H        0.78190    0.02480    0.61420    1.000
    C202     C        0.84061    0.97924    0.49891    1.000
    H114     H        0.84720    0.93490    0.47390    1.000
    C203     C        0.81952    0.26219    0.29317    1.000
    C204     C        0.89327    0.26790    0.38146    1.000
    H115     H        0.93080    0.27730    0.39760    1.000
    C205     C        0.78279    0.23900    0.33139    1.000
    H116     H        0.74540    0.22910    0.31500    1.000
    Nd8      Nd       0.25819    0.21157    0.59545    1.000
    O59      O        0.78413    0.86187    0.61168    1.000
    Si8      Si       0.88008    0.22907    0.50599    1.000
    O60      O        0.16542    0.28984    0.56499    1.000
    O61      O        0.83449    0.28337    0.18916    1.000
    O62      O        0.77771    0.82874    0.51390    1.000
    O63      O        0.16113    0.16568    0.60627    1.000
    C206     C        0.87461    0.27720    0.31820    1.000
    H117     H        0.89950    0.29360    0.29280    1.000
    O64      O        0.74801    0.26330    0.20389    1.000
    C207     C        0.95784    0.22777    0.52777    1.000
    C208     C        0.85712    0.24474    0.42107    1.000
    C209     C        0.85402    0.31505    0.54979    1.000
    C210     C        0.85187    0.12506    0.52440    1.000
    C211     C        0.13695    0.22869    0.57935    1.000
    C212     C        0.07512    0.22968    0.56243    1.000
    C213     C        0.04652    0.29970    0.53882    1.000
    H118     H        0.06620    0.34830    0.53380    1.000
    C214     C        0.80311    0.44420    0.55592    1.000
    H119     H        0.78140    0.48680    0.53540    1.000
    C215     C        0.98913    0.29927    0.52236    1.000
    H120     H        0.97080    0.34800    0.50730    1.000
    C216     C        0.81605    0.44560    0.61874    1.000
    C217     C        0.86086    0.05673    0.48866    1.000
    H121     H        0.88120    0.06380    0.45690    1.000
    C218     C        0.86719    0.31800    0.61413    1.000
    H122     H        0.88980    0.27650    0.63500    1.000
    C219     C        0.98753    0.15711    0.55125    1.000
    H123     H        0.96810    0.10800    0.55550    1.000
    C220     C        0.80190    0.23060    0.39432    1.000
    H124     H        0.77670    0.21490    0.41950    1.000
    C221     C        0.82103    0.11061    0.57121    1.000
    H125     H        0.81350    0.15500    0.59570    1.000
    C222     C        0.84750    0.38120    0.64784    1.000
    H126     H        0.85570    0.37980    0.69070    1.000
    C223     C        0.04500    0.15770    0.56839    1.000
    H127     H        0.06360    0.10940    0.58400    1.000
    C224     C        0.82192    0.37990    0.52171    1.000
    H128     H        0.81250    0.38090    0.47890    1.000
