# CIF file generated by openbabel 3.1.0, see https://openbabel.org
data_I
_chemical_name_common 'image0'
_cell_length_a 9.5741
_cell_length_b 11.4403
_cell_length_c 25.674
_cell_angle_alpha 90
_cell_angle_beta 90
_cell_angle_gamma 90
_space_group_name_H-M_alt 'P 1'
_space_group_name_Hall 'P 1'
loop_
    _symmetry_equiv_pos_as_xyz
    x,y,z
loop_
    _atom_site_label
    _atom_site_type_symbol
    _atom_site_fract_x
    _atom_site_fract_y
    _atom_site_fract_z
    _atom_site_occupancy
    O1       O        0.79740    0.91290    0.05600    1.000
    C1       C        0.94040    0.80000    0.10880    1.000
    C2       C        0.86740    0.83310    0.15260    1.000
    H1       H        0.80090    0.89200    0.14960    1.000
    O2       O        0.00690    0.86300    0.02430    1.000
    C3       C        0.88850    0.78310    0.20020    1.000
    H2       H        0.83970    0.80910    0.22930    1.000
    O3       O        0.06900    0.59420    0.03781    1.000
    O4       O        0.25320    0.69050    0.06830    1.000
    C4       C        0.98420    0.69300    0.20420    1.000
    C5       C        0.05890    0.65480    0.16140    1.000
    H3       H        0.12100    0.59270    0.16430    1.000
    C6       C        0.03900    0.71220    0.11310    1.000
    C7       C        0.91470    0.86350    0.05860    1.000
    C8       C        0.12820    0.66560    0.06930    1.000
    O5       O        0.29740    0.41290    0.05600    1.000
    C9       C        0.44040    0.30000    0.10880    1.000
    C10      C        0.36740    0.33310    0.15260    1.000
    H4       H        0.30090    0.39200    0.14960    1.000
    O6       O        0.50690    0.36300    0.02430    1.000
    C11      C        0.38850    0.28310    0.20020    1.000
    H5       H        0.33970    0.30910    0.22930    1.000
    O7       O        0.56900    0.09420    0.03781    1.000
    O8       O        0.75320    0.19050    0.06830    1.000
    C12      C        0.48420    0.19300    0.20420    1.000
    C13      C        0.55890    0.15480    0.16140    1.000
    H6       H        0.62100    0.09270    0.16430    1.000
    C14      C        0.53900    0.21220    0.11310    1.000
    C15      C        0.41470    0.36350    0.05860    1.000
    C16      C        0.62820    0.16560    0.06930    1.000
    O9       O        0.20260    0.08710    0.55600    1.000
    C17      C        0.05960    0.20000    0.60880    1.000
    C18      C        0.13260    0.16690    0.65260    1.000
    H7       H        0.19910    0.10800    0.64960    1.000
    O10      O        0.99310    0.13700    0.52430    1.000
    C19      C        0.11150    0.21690    0.70020    1.000
    H8       H        0.16030    0.19090    0.72930    1.000
    O11      O        0.93100    0.40580    0.53781    1.000
    O12      O        0.74680    0.30950    0.56830    1.000
    C20      C        0.01580    0.30700    0.70420    1.000
    C21      C        0.94110    0.34520    0.66140    1.000
    H9       H        0.87900    0.40730    0.66430    1.000
    C22      C        0.96100    0.28780    0.61310    1.000
    C23      C        0.08530    0.13650    0.55860    1.000
    C24      C        0.87180    0.33440    0.56930    1.000
    O13      O        0.70260    0.58710    0.55600    1.000
    C25      C        0.55960    0.70000    0.60880    1.000
    C26      C        0.63260    0.66690    0.65260    1.000
    H10      H        0.69910    0.60800    0.64960    1.000
    O14      O        0.49310    0.63700    0.52430    1.000
    C27      C        0.61150    0.71690    0.70020    1.000
    H11      H        0.66030    0.69090    0.72930    1.000
    O15      O        0.43100    0.90580    0.53781    1.000
    O16      O        0.24680    0.80950    0.56830    1.000
    C28      C        0.51580    0.80700    0.70420    1.000
    C29      C        0.44110    0.84520    0.66140    1.000
    H12      H        0.37900    0.90730    0.66430    1.000
    C30      C        0.46100    0.78780    0.61310    1.000
    C31      C        0.58530    0.63650    0.55860    1.000
    C32      C        0.37180    0.83440    0.56930    1.000
    O17      O        0.20260    0.91290    0.44400    1.000
    C33      C        0.05960    0.80000    0.39120    1.000
    C34      C        0.13260    0.83310    0.34740    1.000
    H13      H        0.19910    0.89200    0.35040    1.000
    O18      O        0.99310    0.86300    0.47570    1.000
    C35      C        0.11150    0.78310    0.29980    1.000
    H14      H        0.16030    0.80910    0.27070    1.000
    O19      O        0.93100    0.59420    0.46219    1.000
    O20      O        0.74680    0.69050    0.43170    1.000
    C36      C        0.01580    0.69300    0.29580    1.000
    C37      C        0.94110    0.65480    0.33860    1.000
    H15      H        0.87900    0.59270    0.33570    1.000
    C38      C        0.96100    0.71220    0.38690    1.000
    C39      C        0.08530    0.86350    0.44140    1.000
    C40      C        0.87180    0.66560    0.43070    1.000
    O21      O        0.70260    0.41290    0.44400    1.000
    C41      C        0.55960    0.30000    0.39120    1.000
    C42      C        0.63260    0.33310    0.34740    1.000
    H16      H        0.69910    0.39200    0.35040    1.000
    O22      O        0.49310    0.36300    0.47570    1.000
    C43      C        0.61150    0.28310    0.29980    1.000
    H17      H        0.66030    0.30910    0.27070    1.000
    O23      O        0.43100    0.09420    0.46219    1.000
    O24      O        0.24680    0.19050    0.43170    1.000
    C44      C        0.51580    0.19300    0.29580    1.000
    C45      C        0.44110    0.15480    0.33860    1.000
    H18      H        0.37900    0.09270    0.33570    1.000
    C46      C        0.46100    0.21220    0.38690    1.000
    C47      C        0.58530    0.36350    0.44140    1.000
    C48      C        0.37180    0.16560    0.43070    1.000
    O25      O        0.79740    0.08710    0.94400    1.000
    C49      C        0.94040    0.20000    0.89120    1.000
    C50      C        0.86740    0.16690    0.84740    1.000
    H19      H        0.80090    0.10800    0.85040    1.000
    O26      O        0.00690    0.13700    0.97570    1.000
    C51      C        0.88850    0.21690    0.79980    1.000
    H20      H        0.83970    0.19090    0.77070    1.000
    O27      O        0.06900    0.40580    0.96219    1.000
    O28      O        0.25320    0.30950    0.93170    1.000
    C52      C        0.98420    0.30700    0.79580    1.000
    C53      C        0.05890    0.34520    0.83860    1.000
    H21      H        0.12100    0.40730    0.83570    1.000
    C54      C        0.03900    0.28780    0.88690    1.000
    C55      C        0.91470    0.13650    0.94140    1.000
    C56      C        0.12820    0.33440    0.93070    1.000
    O29      O        0.29740    0.58710    0.94400    1.000
    C57      C        0.44040    0.70000    0.89120    1.000
    C58      C        0.36740    0.66690    0.84740    1.000
    H22      H        0.30090    0.60800    0.85040    1.000
    O30      O        0.50690    0.63700    0.97570    1.000
    C59      C        0.38850    0.71690    0.79980    1.000
    H23      H        0.33970    0.69090    0.77070    1.000
    O31      O        0.56900    0.90580    0.96219    1.000
    O32      O        0.75320    0.80950    0.93170    1.000
    C60      C        0.48420    0.80700    0.79580    1.000
    C61      C        0.55890    0.84520    0.83860    1.000
    H24      H        0.62100    0.90730    0.83570    1.000
    C62      C        0.53900    0.78780    0.88690    1.000
    C63      C        0.41470    0.63650    0.94140    1.000
    C64      C        0.62820    0.83440    0.93070    1.000
    Zn1      Zn       0.71314    0.00000    0.00000    1.000
    Zn2      Zn       0.21314    0.50000    0.00000    1.000
    Zn3      Zn       0.28686    0.00000    0.50000    1.000
    Zn4      Zn       0.78686    0.50000    0.50000    1.000
    O33      O        0.00000    0.62680    0.25000    1.000
    O34      O        0.50000    0.12680    0.25000    1.000
    O35      O        0.00000    0.37320    0.75000    1.000
    O36      O        0.50000    0.87320    0.75000    1.000
