# CIF file generated by openbabel 3.1.0, see https://openbabel.org
data_I
_chemical_name_common 'image0'
_cell_length_a 12.608
_cell_length_b 14.2145
_cell_length_c 14.898
_cell_angle_alpha 69.321
_cell_angle_beta 67.503
_cell_angle_gamma 78.329
_space_group_name_H-M_alt 'P 1'
_space_group_name_Hall 'P 1'
loop_
    _symmetry_equiv_pos_as_xyz
    x,y,z
loop_
    _atom_site_label
    _atom_site_type_symbol
    _atom_site_fract_x
    _atom_site_fract_y
    _atom_site_fract_z
    _atom_site_occupancy
    Tb1      Tb       0.43554    0.48139    0.40405    1.000
    Tb2      Tb       0.94881    0.94611    0.90663    1.000
    O1       O        0.44470    0.50870    0.22300    1.000
    O2       O        0.07090    0.82040    0.82380    1.000
    O3       O        0.53060    0.60440    0.44060    1.000
    O4       O        0.80400    0.95280    0.06490    1.000
    O5       O        0.87000    0.98800    0.16830    1.000
    O6       O        0.36390    0.58180    0.63730    1.000
    O7       O        0.30820    0.56230    0.51920    1.000
    O8       O        0.99150    0.95100    0.73180    1.000
    O9       O        0.03680    0.85540    0.02520    1.000
    C1       C        0.53420    0.67160    0.35530    1.000
    O10      O        0.50700    0.65450    0.29100    1.000
    N1       N        0.26480    0.36130    0.51810    1.000
    O11      O        0.28750    0.55970    0.32960    1.000
    C2       C        0.69980    0.90620    0.24190    1.000
    C3       C        0.79960    0.95300    0.15100    1.000
    O12      O        0.10080    0.87590    0.13570    1.000
    N2       N        0.75290    0.97560    0.87450    1.000
    N3       N        0.83110    0.79150    0.97940    1.000
    C4       C        0.17260    0.73030    0.08270    1.000
    C5       C        0.57080    0.77310    0.33840    1.000
    C6       C        0.65900    0.81820    0.25040    1.000
    H1       H        0.69050    0.78960    0.19750    1.000
    C7       C        0.29390    0.59830    0.15940    1.000
    C8       C        0.21740    0.68280    0.16190    1.000
    H2       H        0.19560    0.70830    0.21650    1.000
    N4       N        0.44590    0.31520    0.36410    1.000
    C9       C        0.30410    0.60710    0.58000    1.000
    C10      C        0.10650    0.82830    0.65240    1.000
    C11      C        0.09800    0.82680    0.08190    1.000
    C12      C        0.51660    0.82020    0.41310    1.000
    H3       H        0.45680    0.79080    0.47120    1.000
    C13      C        0.05260    0.86890    0.74120    1.000
    C14      C        0.64730    0.95150    0.31850    1.000
    H4       H        0.67610    0.00870    0.31450    1.000
    C15      C        0.34570    0.55240    0.24220    1.000
    C16      C        0.18120    0.74220    0.65680    1.000
    H5       H        0.20200    0.71070    0.71470    1.000
    C17      C        0.26540    0.27550    0.49710    1.000
    C18      C        0.20090    0.69020    0.00350    1.000
    H6       H        0.16860    0.72030    0.95230    1.000
    C19      C        0.32510    0.55950    0.07820    1.000
    H7       H        0.37750    0.50330    0.07560    1.000
    C20      C        0.27750    0.60490    0.00050    1.000
    H8       H        0.29710    0.57820    0.94700    1.000
    C21      C        0.35850    0.25320    0.41310    1.000
    C22      C        0.22570    0.70210    0.57590    1.000
    C23      C        0.68150    0.89760    0.92290    1.000
    C24      C        0.64750    0.72330    0.03030    1.000
    C25      C        0.72170    0.80240    0.97850    1.000
    C26      C        0.07760    0.87720    0.56430    1.000
    H9       H        0.02780    0.93530    0.56090    1.000
    C27      C        0.55210    0.91180    0.40080    1.000
    H10      H        0.51190    0.94660    0.44800    1.000
    C28      C        0.17740    0.20810    0.55490    1.000
    C29      C        0.53170    0.29480    0.28580    1.000
    H11      H        0.59270    0.33590    0.25250    1.000
    C30      C        0.56880    0.91320    0.91860    1.000
    C31      C        0.71460    0.06430    0.82200    1.000
    H12      H        0.76330    0.11650    0.78780    1.000
    C32      C        0.12290    0.83910    0.48180    1.000
    H13      H        0.10480    0.87210    0.42280    1.000
    C33      C        0.79760    0.61990    0.08770    1.000
    H14      H        0.82610    0.55890    0.12390    1.000
    C34      C        0.35870    0.16740    0.38590    1.000
    C35      C        0.09080    0.31540    0.65950    1.000
    H15      H        0.03320    0.33180    0.71450    1.000
    C36      C        0.18200    0.12140    0.52540    1.000
    H16      H        0.12460    0.07680    0.56360    1.000
    C37      C        0.53510    0.21500    0.25090    1.000
    H17      H        0.59530    0.20540    0.19370    1.000
    C38      C        0.18100    0.37860    0.59680    1.000
    H18      H        0.18100    0.43640    0.61250    1.000
    C39      C        0.86700    0.70180    0.03320    1.000
    H19      H        0.94150    0.69320    0.03460    1.000
    C40      C        0.08890    0.23110    0.63880    1.000
    H20      H        0.02990    0.18850    0.67930    1.000
    C41      C        0.19490    0.75170    0.48890    1.000
    H21      H        0.22360    0.72520    0.43460    1.000
    C42      C        0.69060    0.63090    0.08660    1.000
    H22      H        0.64380    0.57740    0.12320    1.000
    C43      C        0.60430    0.08130    0.81680    1.000
    H23      H        0.58170    0.14410    0.77850    1.000
    C44      C        0.26500    0.10290    0.44560    1.000
    H24      H        0.26330    0.04720    0.42740    1.000
    C45      C        0.53440    0.73990    0.02480    1.000
    H25      H        0.48580    0.68770    0.05820    1.000
    C46      C        0.49740    0.82880    0.97260    1.000
    H26      H        0.42310    0.83720    0.97070    1.000
    C47      C        0.44860    0.15090    0.30200    1.000
    H27      H        0.45030    0.09650    0.28050    1.000
    C48      C        0.52970    0.00960    0.86550    1.000
    H28      H        0.45480    0.02270    0.86450    1.000
    Tb3      Tb       0.56446    0.51861    0.59595    1.000
    Tb4      Tb       0.05119    0.05389    0.09337    1.000
    O13      O        0.55530    0.49130    0.77700    1.000
    O14      O        0.92910    0.17960    0.17620    1.000
    O15      O        0.46940    0.39560    0.55940    1.000
    O16      O        0.19600    0.04720    0.93510    1.000
    O17      O        0.13000    0.01200    0.83170    1.000
    O18      O        0.63610    0.41820    0.36270    1.000
    O19      O        0.69180    0.43770    0.48080    1.000
    O20      O        0.00850    0.04900    0.26820    1.000
    O21      O        0.96320    0.14460    0.97480    1.000
    C49      C        0.46580    0.32840    0.64470    1.000
    O22      O        0.49300    0.34550    0.70900    1.000
    N5       N        0.73520    0.63870    0.48190    1.000
    O23      O        0.71250    0.44030    0.67040    1.000
    C50      C        0.30020    0.09380    0.75810    1.000
    C51      C        0.20040    0.04700    0.84900    1.000
    O24      O        0.89920    0.12410    0.86430    1.000
    N6       N        0.24710    0.02440    0.12550    1.000
    N7       N        0.16890    0.20850    0.02060    1.000
    C52      C        0.82740    0.26970    0.91730    1.000
    C53      C        0.42920    0.22690    0.66160    1.000
    C54      C        0.34100    0.18180    0.74960    1.000
    H29      H        0.30950    0.21040    0.80250    1.000
    C55      C        0.70610    0.40170    0.84060    1.000
    C56      C        0.78260    0.31720    0.83810    1.000
    H30      H        0.80440    0.29170    0.78350    1.000
    N8       N        0.55410    0.68480    0.63590    1.000
    C57      C        0.69590    0.39290    0.42000    1.000
    C58      C        0.89350    0.17170    0.34760    1.000
    C59      C        0.90200    0.17320    0.91810    1.000
    C60      C        0.48340    0.17980    0.58690    1.000
    H31      H        0.54320    0.20920    0.52880    1.000
    C61      C        0.94740    0.13110    0.25880    1.000
    C62      C        0.35270    0.04850    0.68150    1.000
    H32      H        0.32390    0.99130    0.68550    1.000
    C63      C        0.65430    0.44760    0.75780    1.000
    C64      C        0.81880    0.25780    0.34320    1.000
    H33      H        0.79800    0.28930    0.28530    1.000
    C65      C        0.73460    0.72450    0.50290    1.000
    C66      C        0.79910    0.30980    0.99650    1.000
    H34      H        0.83140    0.27970    0.04770    1.000
    C67      C        0.67490    0.44050    0.92180    1.000
    H35      H        0.62250    0.49670    0.92440    1.000
    C68      C        0.72250    0.39510    0.99950    1.000
    H36      H        0.70290    0.42180    0.05300    1.000
    C69      C        0.64150    0.74680    0.58690    1.000
    C70      C        0.77430    0.29790    0.42410    1.000
    C71      C        0.31850    0.10240    0.07710    1.000
    C72      C        0.35250    0.27670    0.96970    1.000
    C73      C        0.27830    0.19760    0.02150    1.000
    C74      C        0.92240    0.12280    0.43570    1.000
    H37      H        0.97220    0.06470    0.43910    1.000
    C75      C        0.44790    0.08820    0.59920    1.000
    H38      H        0.48810    0.05340    0.55200    1.000
    C76      C        0.82260    0.79190    0.44510    1.000
    C77      C        0.46830    0.70520    0.71420    1.000
    H39      H        0.40730    0.66410    0.74750    1.000
    C78      C        0.43120    0.08680    0.08140    1.000
    C79      C        0.28540    0.93570    0.17800    1.000
    H40      H        0.23670    0.88350    0.21220    1.000
    C80      C        0.87710    0.16090    0.51820    1.000
    H41      H        0.89520    0.12790    0.57720    1.000
    C81      C        0.20240    0.38010    0.91230    1.000
    H42      H        0.17390    0.44110    0.87610    1.000
    C82      C        0.64130    0.83260    0.61410    1.000
    C83      C        0.90920    0.68460    0.34050    1.000
    H43      H        0.96680    0.66820    0.28550    1.000
    C84      C        0.81800    0.87860    0.47460    1.000
    H44      H        0.87540    0.92320    0.43640    1.000
    C85      C        0.46490    0.78500    0.74910    1.000
    H45      H        0.40470    0.79460    0.80630    1.000
    C86      C        0.81900    0.62140    0.40320    1.000
    H46      H        0.81900    0.56360    0.38750    1.000
    C87      C        0.13300    0.29820    0.96680    1.000
    H47      H        0.05850    0.30680    0.96540    1.000
    C88      C        0.91110    0.76890    0.36120    1.000
    H48      H        0.97010    0.81150    0.32070    1.000
    C89      C        0.80510    0.24830    0.51110    1.000
    H49      H        0.77640    0.27480    0.56540    1.000
    C90      C        0.30940    0.36910    0.91340    1.000
    H50      H        0.35620    0.42260    0.87680    1.000
    C91      C        0.39570    0.91870    0.18320    1.000
    H51      H        0.41830    0.85590    0.22150    1.000
    C92      C        0.73500    0.89710    0.55440    1.000
    H52      H        0.73670    0.95280    0.57260    1.000
    C93      C        0.46560    0.26010    0.97520    1.000
    H53      H        0.51420    0.31230    0.94180    1.000
    C94      C        0.50260    0.17120    0.02740    1.000
    H54      H        0.57690    0.16280    0.02930    1.000
    C95      C        0.55140    0.84910    0.69800    1.000
    H55      H        0.54970    0.90350    0.71950    1.000
    C96      C        0.47030    0.99040    0.13450    1.000
    H56      H        0.54520    0.97730    0.13550    1.000
