# CIF file generated by openbabel 3.1.0, see https://openbabel.org
data_I
_chemical_name_common 'image0'
_cell_length_a 27.253
_cell_length_b 27.253
_cell_length_c 4.1475
_cell_angle_alpha 90
_cell_angle_beta 90
_cell_angle_gamma 90
_space_group_name_H-M_alt 'P 1'
_space_group_name_Hall 'P 1'
loop_
    _symmetry_equiv_pos_as_xyz
    x,y,z
loop_
    _atom_site_label
    _atom_site_type_symbol
    _atom_site_fract_x
    _atom_site_fract_y
    _atom_site_fract_z
    _atom_site_occupancy
    Zn1      Zn       0.28048    0.21397    0.86510    1.000
    O1       O        0.21490    0.24310    0.98500    1.000
    H1       H        0.19370    0.25430    0.87120    1.000
    N1       N        0.24870    0.14570    0.80500    1.000
    C1       C        0.27030    0.11260    0.98300    1.000
    H2       H        0.29890    0.11890    0.09790    1.000
    N2       N        0.24760    0.06820    0.98800    1.000
    C2       C        0.21310    0.12430    0.69600    1.000
    O2       O        0.27280    0.84500    0.42800    1.000
    C3       C        0.17980    0.14650    0.49200    1.000
    H3       H        0.18390    0.17910    0.43170    1.000
    O3       O        0.31220    0.86980    0.78500    1.000
    C4       C        0.14060    0.12000    0.37800    1.000
    C5       C        0.10830    0.14400    0.17500    1.000
    H4       H        0.11440    0.17670    0.12460    1.000
    C6       C        0.06760    0.12180    0.04300    1.000
    H5       H        0.04600    0.13770    0.90450    1.000
    C7       C        0.06210    0.07340    0.13600    1.000
    H6       H        0.03520    0.05610    0.05840    1.000
    C8       C        0.09430    0.04950    0.33800    1.000
    H7       H        0.08830    0.01680    0.38760    1.000
    C9       C        0.13500    0.07180    0.47000    1.000
    C10      C        0.16790    0.04960    0.67300    1.000
    H8       H        0.16360    0.01690    0.73260    1.000
    C11      C        0.20730    0.07590    0.78800    1.000
    C12      C        0.26220    0.02010    0.13500    1.000
    C13      C        0.28080    0.92740    0.33300    1.000
    C14      C        0.30980    0.00350    0.14000    1.000
    H9       H        0.33500    0.02430    0.07620    1.000
    C15      C        0.32080    0.95600    0.24000    1.000
    H10      H        0.35280    0.94420    0.24500    1.000
    C16      C        0.23140    0.94050    0.33600    1.000
    H11      H        0.20600    0.91970    0.39950    1.000
    C17      C        0.22490    0.98860    0.23200    1.000
    H12      H        0.19300    0.00070    0.22740    1.000
    C18      C        0.29700    0.88060    0.49600    1.000
    O4       O        0.34130    0.87580    0.60900    1.000
    C19      C        0.29210    0.01190    0.39900    1.000
    H13      H        0.30580    0.03840    0.50720    1.000
    C20      C        0.30190    0.96500    0.50300    1.000
    H14      H        0.32190    0.95900    0.68090    1.000
    C21      C        0.25080    0.93360    0.07100    1.000
    H15      H        0.23700    0.90700    0.96400    1.000
    C22      C        0.24200    0.98110    0.97500    1.000
    H16      H        0.22190    0.98680    0.79780    1.000
    Zn2      Zn       0.78048    0.71397    0.36510    1.000
    O5       O        0.71490    0.74310    0.48500    1.000
    H17      H        0.69370    0.75430    0.37120    1.000
    N3       N        0.74870    0.64570    0.30500    1.000
    C23      C        0.77030    0.61260    0.48300    1.000
    H18      H        0.79890    0.61890    0.59790    1.000
    N4       N        0.74760    0.56820    0.48800    1.000
    C24      C        0.71310    0.62430    0.19600    1.000
    O6       O        0.77280    0.34500    0.92800    1.000
    C25      C        0.67980    0.64650    0.99200    1.000
    H19      H        0.68390    0.67910    0.93170    1.000
    O7       O        0.81220    0.36980    0.28500    1.000
    C26      C        0.64060    0.62000    0.87800    1.000
    C27      C        0.60830    0.64400    0.67500    1.000
    H20      H        0.61440    0.67670    0.62460    1.000
    C28      C        0.56760    0.62180    0.54300    1.000
    H21      H        0.54600    0.63770    0.40450    1.000
    C29      C        0.56210    0.57340    0.63600    1.000
    H22      H        0.53520    0.55610    0.55840    1.000
    C30      C        0.59430    0.54950    0.83800    1.000
    H23      H        0.58830    0.51680    0.88760    1.000
    C31      C        0.63500    0.57180    0.97000    1.000
    C32      C        0.66790    0.54960    0.17300    1.000
    H24      H        0.66360    0.51690    0.23260    1.000
    C33      C        0.70730    0.57590    0.28800    1.000
    C34      C        0.76220    0.52010    0.63500    1.000
    C35      C        0.78080    0.42740    0.83300    1.000
    C36      C        0.80980    0.50350    0.64000    1.000
    H25      H        0.83500    0.52430    0.57620    1.000
    C37      C        0.82080    0.45600    0.74000    1.000
    H26      H        0.85280    0.44420    0.74500    1.000
    C38      C        0.73140    0.44050    0.83600    1.000
    H27      H        0.70600    0.41970    0.89950    1.000
    C39      C        0.72490    0.48860    0.73200    1.000
    H28      H        0.69300    0.50070    0.72740    1.000
    C40      C        0.79700    0.38060    0.99600    1.000
    O8       O        0.84130    0.37580    0.10900    1.000
    C41      C        0.79210    0.51190    0.89900    1.000
    H29      H        0.80580    0.53840    0.00720    1.000
    C42      C        0.80190    0.46500    0.00300    1.000
    H30      H        0.82190    0.45900    0.18090    1.000
    C43      C        0.75080    0.43360    0.57100    1.000
    H31      H        0.73700    0.40700    0.46400    1.000
    C44      C        0.74200    0.48110    0.47500    1.000
    H32      H        0.72190    0.48680    0.29780    1.000
    Zn3      Zn       0.71952    0.78603    0.86510    1.000
    O9       O        0.78510    0.75690    0.98500    1.000
    H33      H        0.80630    0.74570    0.87120    1.000
    N5       N        0.75130    0.85430    0.80500    1.000
    C45      C        0.72970    0.88740    0.98300    1.000
    H34      H        0.70110    0.88110    0.09790    1.000
    N6       N        0.75240    0.93180    0.98800    1.000
    C46      C        0.78690    0.87570    0.69600    1.000
    O10      O        0.72720    0.15500    0.42800    1.000
    C47      C        0.82020    0.85350    0.49200    1.000
    H35      H        0.81610    0.82090    0.43170    1.000
    O11      O        0.68780    0.13020    0.78500    1.000
    C48      C        0.85940    0.88000    0.37800    1.000
    C49      C        0.89170    0.85600    0.17500    1.000
    H36      H        0.88560    0.82330    0.12460    1.000
    C50      C        0.93240    0.87820    0.04300    1.000
    H37      H        0.95400    0.86230    0.90450    1.000
    C51      C        0.93790    0.92660    0.13600    1.000
    H38      H        0.96480    0.94390    0.05840    1.000
    C52      C        0.90570    0.95050    0.33800    1.000
    H39      H        0.91170    0.98320    0.38760    1.000
    C53      C        0.86500    0.92820    0.47000    1.000
    C54      C        0.83210    0.95040    0.67300    1.000
    H40      H        0.83640    0.98310    0.73260    1.000
    C55      C        0.79270    0.92410    0.78800    1.000
    C56      C        0.73780    0.97990    0.13500    1.000
    C57      C        0.71920    0.07260    0.33300    1.000
    C58      C        0.69020    0.99650    0.14000    1.000
    H41      H        0.66500    0.97570    0.07620    1.000
    C59      C        0.67920    0.04400    0.24000    1.000
    H42      H        0.64720    0.05580    0.24500    1.000
    C60      C        0.76860    0.05950    0.33600    1.000
    H43      H        0.79400    0.08030    0.39950    1.000
    C61      C        0.77510    0.01140    0.23200    1.000
    H44      H        0.80700    0.99930    0.22740    1.000
    C62      C        0.70300    0.11940    0.49600    1.000
    O12      O        0.65870    0.12420    0.60900    1.000
    C63      C        0.70790    0.98810    0.39900    1.000
    H45      H        0.69420    0.96160    0.50720    1.000
    C64      C        0.69810    0.03500    0.50300    1.000
    H46      H        0.67810    0.04100    0.68090    1.000
    C65      C        0.74920    0.06640    0.07100    1.000
    H47      H        0.76300    0.09300    0.96400    1.000
    C66      C        0.75800    0.01890    0.97500    1.000
    H48      H        0.77810    0.01320    0.79780    1.000
    Zn4      Zn       0.21952    0.28603    0.36510    1.000
    O13      O        0.28510    0.25690    0.48500    1.000
    H49      H        0.30630    0.24570    0.37120    1.000
    N7       N        0.25130    0.35430    0.30500    1.000
    C67      C        0.22970    0.38740    0.48300    1.000
    H50      H        0.20110    0.38110    0.59790    1.000
    N8       N        0.25240    0.43180    0.48800    1.000
    C68      C        0.28690    0.37570    0.19600    1.000
    O14      O        0.22720    0.65500    0.92800    1.000
    C69      C        0.32020    0.35350    0.99200    1.000
    H51      H        0.31610    0.32090    0.93170    1.000
    O15      O        0.18780    0.63020    0.28500    1.000
    C70      C        0.35940    0.38000    0.87800    1.000
    C71      C        0.39170    0.35600    0.67500    1.000
    H52      H        0.38560    0.32330    0.62460    1.000
    C72      C        0.43240    0.37820    0.54300    1.000
    H53      H        0.45400    0.36230    0.40450    1.000
    C73      C        0.43790    0.42660    0.63600    1.000
    H54      H        0.46480    0.44390    0.55840    1.000
    C74      C        0.40570    0.45050    0.83800    1.000
    H55      H        0.41170    0.48320    0.88760    1.000
    C75      C        0.36500    0.42820    0.97000    1.000
    C76      C        0.33210    0.45040    0.17300    1.000
    H56      H        0.33640    0.48310    0.23260    1.000
    C77      C        0.29270    0.42410    0.28800    1.000
    C78      C        0.23780    0.47990    0.63500    1.000
    C79      C        0.21920    0.57260    0.83300    1.000
    C80      C        0.19020    0.49650    0.64000    1.000
    H57      H        0.16500    0.47570    0.57620    1.000
    C81      C        0.17920    0.54400    0.74000    1.000
    H58      H        0.14720    0.55580    0.74500    1.000
    C82      C        0.26860    0.55950    0.83600    1.000
    H59      H        0.29400    0.58030    0.89950    1.000
    C83      C        0.27510    0.51140    0.73200    1.000
    H60      H        0.30700    0.49930    0.72740    1.000
    C84      C        0.20300    0.61940    0.99600    1.000
    O16      O        0.15870    0.62420    0.10900    1.000
    C85      C        0.20790    0.48810    0.89900    1.000
    H61      H        0.19420    0.46160    0.00720    1.000
    C86      C        0.19810    0.53500    0.00300    1.000
    H62      H        0.17810    0.54100    0.18090    1.000
    C87      C        0.24920    0.56640    0.57100    1.000
    H63      H        0.26300    0.59300    0.46400    1.000
    C88      C        0.25800    0.51890    0.47500    1.000
    H64      H        0.27810    0.51320    0.29780    1.000
    Zn5      Zn       0.21397    0.71952    0.13490    1.000
    O17      O        0.24310    0.78510    0.01500    1.000
    H65      H        0.25430    0.80630    0.12880    1.000
    N9       N        0.14570    0.75130    0.19500    1.000
    C89      C        0.11260    0.72970    0.01700    1.000
    H66      H        0.11890    0.70110    0.90210    1.000
    N10      N        0.06820    0.75240    0.01200    1.000
    C90      C        0.12430    0.78690    0.30400    1.000
    O18      O        0.84500    0.72720    0.57200    1.000
    C91      C        0.14650    0.82020    0.50800    1.000
    H67      H        0.17910    0.81610    0.56830    1.000
    O19      O        0.86980    0.68780    0.21500    1.000
    C92      C        0.12000    0.85940    0.62200    1.000
    C93      C        0.14400    0.89170    0.82500    1.000
    H68      H        0.17670    0.88560    0.87540    1.000
    C94      C        0.12180    0.93240    0.95700    1.000
    H69      H        0.13770    0.95400    0.09550    1.000
    C95      C        0.07340    0.93790    0.86400    1.000
    H70      H        0.05610    0.96480    0.94160    1.000
    C96      C        0.04950    0.90570    0.66200    1.000
    H71      H        0.01680    0.91170    0.61240    1.000
    C97      C        0.07180    0.86500    0.53000    1.000
    C98      C        0.04960    0.83210    0.32700    1.000
    H72      H        0.01690    0.83640    0.26740    1.000
    C99      C        0.07590    0.79270    0.21200    1.000
    C100     C        0.02010    0.73780    0.86500    1.000
    C101     C        0.92740    0.71920    0.66700    1.000
    C102     C        0.00350    0.69020    0.86000    1.000
    H73      H        0.02430    0.66500    0.92380    1.000
    C103     C        0.95600    0.67920    0.76000    1.000
    H74      H        0.94420    0.64720    0.75500    1.000
    C104     C        0.94050    0.76860    0.66400    1.000
    H75      H        0.91970    0.79400    0.60050    1.000
    C105     C        0.98860    0.77510    0.76800    1.000
    H76      H        0.00070    0.80700    0.77260    1.000
    C106     C        0.88060    0.70300    0.50400    1.000
    O20      O        0.87580    0.65870    0.39100    1.000
    C107     C        0.01190    0.70790    0.60100    1.000
    H77      H        0.03840    0.69420    0.49280    1.000
    C108     C        0.96500    0.69810    0.49700    1.000
    H78      H        0.95900    0.67810    0.31910    1.000
    C109     C        0.93360    0.74920    0.92900    1.000
    H79      H        0.90700    0.76300    0.03600    1.000
    C110     C        0.98110    0.75800    0.02500    1.000
    H80      H        0.98680    0.77810    0.20220    1.000
    Zn6      Zn       0.71397    0.21952    0.63490    1.000
    O21      O        0.74310    0.28510    0.51500    1.000
    H81      H        0.75430    0.30630    0.62880    1.000
    N11      N        0.64570    0.25130    0.69500    1.000
    C111     C        0.61260    0.22970    0.51700    1.000
    H82      H        0.61890    0.20110    0.40210    1.000
    N12      N        0.56820    0.25240    0.51200    1.000
    C112     C        0.62430    0.28690    0.80400    1.000
    O22      O        0.34500    0.22720    0.07200    1.000
    C113     C        0.64650    0.32020    0.00800    1.000
    H83      H        0.67910    0.31610    0.06830    1.000
    O23      O        0.36980    0.18780    0.71500    1.000
    C114     C        0.62000    0.35940    0.12200    1.000
    C115     C        0.64400    0.39170    0.32500    1.000
    H84      H        0.67670    0.38560    0.37540    1.000
    C116     C        0.62180    0.43240    0.45700    1.000
    H85      H        0.63770    0.45400    0.59550    1.000
    C117     C        0.57340    0.43790    0.36400    1.000
    H86      H        0.55610    0.46480    0.44160    1.000
    C118     C        0.54950    0.40570    0.16200    1.000
    H87      H        0.51680    0.41170    0.11240    1.000
    C119     C        0.57180    0.36500    0.03000    1.000
    C120     C        0.54960    0.33210    0.82700    1.000
    H88      H        0.51690    0.33640    0.76740    1.000
    C121     C        0.57590    0.29270    0.71200    1.000
    C122     C        0.52010    0.23780    0.36500    1.000
    C123     C        0.42740    0.21920    0.16700    1.000
    C124     C        0.50350    0.19020    0.36000    1.000
    H89      H        0.52430    0.16500    0.42380    1.000
    C125     C        0.45600    0.17920    0.26000    1.000
    H90      H        0.44420    0.14720    0.25500    1.000
    C126     C        0.44050    0.26860    0.16400    1.000
    H91      H        0.41970    0.29400    0.10050    1.000
    C127     C        0.48860    0.27510    0.26800    1.000
    H92      H        0.50070    0.30700    0.27260    1.000
    C128     C        0.38060    0.20300    0.00400    1.000
    O24      O        0.37580    0.15870    0.89100    1.000
    C129     C        0.51190    0.20790    0.10100    1.000
    H93      H        0.53840    0.19420    0.99280    1.000
    C130     C        0.46500    0.19810    0.99700    1.000
    H94      H        0.45900    0.17810    0.81910    1.000
    C131     C        0.43360    0.24920    0.42900    1.000
    H95      H        0.40700    0.26300    0.53600    1.000
    C132     C        0.48110    0.25800    0.52500    1.000
    H96      H        0.48680    0.27810    0.70220    1.000
    Zn7      Zn       0.78603    0.28048    0.13490    1.000
    O25      O        0.75690    0.21490    0.01500    1.000
    H97      H        0.74570    0.19370    0.12880    1.000
    N13      N        0.85430    0.24870    0.19500    1.000
    C133     C        0.88740    0.27030    0.01700    1.000
    H98      H        0.88110    0.29890    0.90210    1.000
    N14      N        0.93180    0.24760    0.01200    1.000
    C134     C        0.87570    0.21310    0.30400    1.000
    O26      O        0.15500    0.27280    0.57200    1.000
    C135     C        0.85350    0.17980    0.50800    1.000
    H99      H        0.82090    0.18390    0.56830    1.000
    O27      O        0.13020    0.31220    0.21500    1.000
    C136     C        0.88000    0.14060    0.62200    1.000
    C137     C        0.85600    0.10830    0.82500    1.000
    H100     H        0.82330    0.11440    0.87540    1.000
    C138     C        0.87820    0.06760    0.95700    1.000
    H101     H        0.86230    0.04600    0.09550    1.000
    C139     C        0.92660    0.06210    0.86400    1.000
    H102     H        0.94390    0.03520    0.94160    1.000
    C140     C        0.95050    0.09430    0.66200    1.000
    H103     H        0.98320    0.08830    0.61240    1.000
    C141     C        0.92820    0.13500    0.53000    1.000
    C142     C        0.95040    0.16790    0.32700    1.000
    H104     H        0.98310    0.16360    0.26740    1.000
    C143     C        0.92410    0.20730    0.21200    1.000
    C144     C        0.97990    0.26220    0.86500    1.000
    C145     C        0.07260    0.28080    0.66700    1.000
    C146     C        0.99650    0.30980    0.86000    1.000
    H105     H        0.97570    0.33500    0.92380    1.000
    C147     C        0.04400    0.32080    0.76000    1.000
    H106     H        0.05580    0.35280    0.75500    1.000
    C148     C        0.05950    0.23140    0.66400    1.000
    H107     H        0.08030    0.20600    0.60050    1.000
    C149     C        0.01140    0.22490    0.76800    1.000
    H108     H        0.99930    0.19300    0.77260    1.000
    C150     C        0.11940    0.29700    0.50400    1.000
    O28      O        0.12420    0.34130    0.39100    1.000
    C151     C        0.98810    0.29210    0.60100    1.000
    H109     H        0.96160    0.30580    0.49280    1.000
    C152     C        0.03500    0.30190    0.49700    1.000
    H110     H        0.04100    0.32190    0.31910    1.000
    C153     C        0.06640    0.25080    0.92900    1.000
    H111     H        0.09300    0.23700    0.03600    1.000
    C154     C        0.01890    0.24200    0.02500    1.000
    H112     H        0.01320    0.22190    0.20220    1.000
    Zn8      Zn       0.28603    0.78048    0.63490    1.000
    O29      O        0.25690    0.71490    0.51500    1.000
    H113     H        0.24570    0.69370    0.62880    1.000
    N15      N        0.35430    0.74870    0.69500    1.000
    C155     C        0.38740    0.77030    0.51700    1.000
    H114     H        0.38110    0.79890    0.40210    1.000
    N16      N        0.43180    0.74760    0.51200    1.000
    C156     C        0.37570    0.71310    0.80400    1.000
    O30      O        0.65500    0.77280    0.07200    1.000
    C157     C        0.35350    0.67980    0.00800    1.000
    H115     H        0.32090    0.68390    0.06830    1.000
    O31      O        0.63020    0.81220    0.71500    1.000
    C158     C        0.38000    0.64060    0.12200    1.000
    C159     C        0.35600    0.60830    0.32500    1.000
    H116     H        0.32330    0.61440    0.37540    1.000
    C160     C        0.37820    0.56760    0.45700    1.000
    H117     H        0.36230    0.54600    0.59550    1.000
    C161     C        0.42660    0.56210    0.36400    1.000
    H118     H        0.44390    0.53520    0.44160    1.000
    C162     C        0.45050    0.59430    0.16200    1.000
    H119     H        0.48320    0.58830    0.11240    1.000
    C163     C        0.42820    0.63500    0.03000    1.000
    C164     C        0.45040    0.66790    0.82700    1.000
    H120     H        0.48310    0.66360    0.76740    1.000
    C165     C        0.42410    0.70730    0.71200    1.000
    C166     C        0.47990    0.76220    0.36500    1.000
    C167     C        0.57260    0.78080    0.16700    1.000
    C168     C        0.49650    0.80980    0.36000    1.000
    H121     H        0.47570    0.83500    0.42380    1.000
    C169     C        0.54400    0.82080    0.26000    1.000
    H122     H        0.55580    0.85280    0.25500    1.000
    C170     C        0.55950    0.73140    0.16400    1.000
    H123     H        0.58030    0.70600    0.10050    1.000
    C171     C        0.51140    0.72490    0.26800    1.000
    H124     H        0.49930    0.69300    0.27260    1.000
    C172     C        0.61940    0.79700    0.00400    1.000
    O32      O        0.62420    0.84130    0.89100    1.000
    C173     C        0.48810    0.79210    0.10100    1.000
    H125     H        0.46160    0.80580    0.99280    1.000
    C174     C        0.53500    0.80190    0.99700    1.000
    H126     H        0.54100    0.82190    0.81910    1.000
    C175     C        0.56640    0.75080    0.42900    1.000
    H127     H        0.59300    0.73700    0.53600    1.000
    C176     C        0.51890    0.74200    0.52500    1.000
    H128     H        0.51320    0.72190    0.70220    1.000
