# CIF file generated by openbabel 3.1.0, see https://openbabel.org
data_I
_chemical_name_common 'ECUDAI_clean'
_cell_length_a 8.4735
_cell_length_b 10.8836
_cell_length_c 11.1301
_cell_angle_alpha 64.333
_cell_angle_beta 80.33
_cell_angle_gamma 73.76
_space_group_name_H-M_alt 'P 1'
_space_group_name_Hall 'P 1'
loop_
    _symmetry_equiv_pos_as_xyz
    x,y,z
loop_
    _atom_site_label
    _atom_site_type_symbol
    _atom_site_fract_x
    _atom_site_fract_y
    _atom_site_fract_z
    _atom_site_occupancy
    Nd1      Nd       0.25174    0.99682    0.49731    1.000
    Nd2      Nd       0.74826    0.00318    0.50269    1.000
    H1       H        0.25040    0.05120    0.97670    1.000
    H2       H        0.24140    0.43300    0.67580    1.000
    H3       H        0.90480    0.39190    0.98560    1.000
    H4       H        0.98310    0.03070    0.12510    1.000
    H5       H        0.87650    0.16810    0.14420    1.000
    H6       H        0.46800    0.24220    0.68290    1.000
    H7       H        0.48870    0.09630    0.81110    1.000
    H8       H        0.93820    0.62410    0.82870    1.000
    H9       H        0.07140    0.64140    0.70610    1.000
    H10      H        0.74960    0.94880    0.02330    1.000
    H11      H        0.75860    0.56700    0.32420    1.000
    H12      H        0.09520    0.60810    0.01440    1.000
    H13      H        0.01690    0.96930    0.87490    1.000
    H14      H        0.12350    0.83190    0.85580    1.000
    H15      H        0.53200    0.75780    0.31710    1.000
    H16      H        0.51130    0.90370    0.18890    1.000
    H17      H        0.06180    0.37590    0.17130    1.000
    H18      H        0.92860    0.35860    0.29390    1.000
    C1       C        0.06610    0.20730    0.00160    1.000
    C2       C        0.20210    0.14880    0.93720    1.000
    C3       C        0.26690    0.23300    0.81560    1.000
    C4       C        0.19630    0.37570    0.75880    1.000
    C5       C        0.06180    0.43630    0.82030    1.000
    C6       C        0.99700    0.35140    0.94230    1.000
    C7       C        0.99020    0.11690    0.13160    1.000
    C8       C        0.08290    0.07560    0.25250    1.000
    C9       C        0.41030    0.16860    0.74440    1.000
    C10      C        0.36230    0.10230    0.66520    1.000
    C11      C        0.98410    0.59150    0.75680    1.000
    C12      C        0.84860    0.63270    0.66370    1.000
    C13      C        0.93390    0.79270    0.99840    1.000
    C14      C        0.79790    0.85120    0.06280    1.000
    C15      C        0.73310    0.76700    0.18440    1.000
    C16      C        0.80370    0.62430    0.24120    1.000
    C17      C        0.93820    0.56370    0.17970    1.000
    C18      C        0.00300    0.64860    0.05770    1.000
    C19      C        0.00980    0.88310    0.86840    1.000
    C20      C        0.91710    0.92440    0.74750    1.000
    C21      C        0.58970    0.83140    0.25560    1.000
    C22      C        0.63770    0.89770    0.33480    1.000
    C23      C        0.01590    0.40850    0.24320    1.000
    C24      C        0.15140    0.36730    0.33630    1.000
    O1       O        0.00320    0.04850    0.36700    1.000
    O2       O        0.23800    0.05920    0.24810    1.000
    O3       O        0.21730    0.09020    0.67420    1.000
    O4       O        0.46960    0.06260    0.58700    1.000
    O5       O        0.77840    0.75930    0.61530    1.000
    O6       O        0.81110    0.54090    0.64300    1.000
    O7       O        0.99680    0.95150    0.63300    1.000
    O8       O        0.76200    0.94080    0.75190    1.000
    O9       O        0.78270    0.90980    0.32580    1.000
    O10      O        0.53040    0.93740    0.41300    1.000
    O11      O        0.22160    0.24070    0.38470    1.000
    O12      O        0.18890    0.45910    0.35700    1.000
