# CIF file generated by openbabel 3.1.0, see https://openbabel.org
data_I
_chemical_name_common 'image0'
_cell_length_a 8.7407
_cell_length_b 33.9886
_cell_length_c 8.6771
_cell_angle_alpha 90
_cell_angle_beta 107.725
_cell_angle_gamma 90
_space_group_name_H-M_alt 'P 1'
_space_group_name_Hall 'P 1'
loop_
    _symmetry_equiv_pos_as_xyz
    x,y,z
loop_
    _atom_site_label
    _atom_site_type_symbol
    _atom_site_fract_x
    _atom_site_fract_y
    _atom_site_fract_z
    _atom_site_occupancy
    Cu1      Cu       0.75056    0.20358    0.48505    1.000
    Cu2      Cu       0.73979    0.04573    0.49924    1.000
    O1       O        0.89475    0.15421    0.61392    1.000
    O2       O        0.85275    0.09016    0.62874    1.000
    O3       O        0.62200    0.15999    0.36281    1.000
    O4       O        0.61334    0.09481    0.34448    1.000
    O5       O        0.62451    0.20661    0.64767    1.000
    O6       O        0.59380    0.24885    0.83130    1.000
    O7       O        0.87709    0.24604    0.62152    1.000
    O8       O        0.86310    0.28759    0.81501    1.000
    O9       O        0.90827    0.04046    0.38243    1.000
    O10      O        0.09040    0.99900    0.34630    1.000
    O11      O        0.57127    0.04165    0.61610    1.000
    O12      O        0.38000    0.99929    0.62764    1.000
    C1       C        0.81960    0.12345    0.56470    1.000
    C2       C        0.67130    0.12595    0.40980    1.000
    C3       C        0.81460    0.25882    0.72460    1.000
    C4       C        0.66440    0.23659    0.73790    1.000
    C5       C        0.00080    0.01101    0.42170    1.000
    C6       C        0.48570    0.01186    0.57060    1.000
    Cu3      Cu       0.24944    0.70358    0.01495    1.000
    Cu4      Cu       0.26021    0.54573    0.00076    1.000
    O13      O        0.10525    0.65421    0.88608    1.000
    O14      O        0.14725    0.59016    0.87126    1.000
    O15      O        0.37800    0.65999    0.13719    1.000
    O16      O        0.38666    0.59481    0.15552    1.000
    O17      O        0.37549    0.70661    0.85233    1.000
    O18      O        0.40620    0.74885    0.66870    1.000
    O19      O        0.12291    0.74604    0.87848    1.000
    O20      O        0.13690    0.78759    0.68499    1.000
    O21      O        0.09173    0.54046    0.11757    1.000
    O22      O        0.90960    0.49900    0.15370    1.000
    O23      O        0.42873    0.54165    0.88390    1.000
    O24      O        0.62000    0.49929    0.87236    1.000
    C7       C        0.18040    0.62345    0.93530    1.000
    C8       C        0.32870    0.62595    0.09020    1.000
    C9       C        0.18540    0.75882    0.77540    1.000
    C10      C        0.33560    0.73659    0.76210    1.000
    C11      C        0.99920    0.51101    0.07830    1.000
    C12      C        0.51430    0.51186    0.92940    1.000
    Cu5      Cu       0.24944    0.79642    0.51495    1.000
    Cu6      Cu       0.26021    0.95427    0.50076    1.000
    O25      O        0.10525    0.84579    0.38608    1.000
    O26      O        0.14725    0.90984    0.37126    1.000
    O27      O        0.37800    0.84001    0.63719    1.000
    O28      O        0.38666    0.90519    0.65552    1.000
    O29      O        0.37549    0.79339    0.35233    1.000
    O30      O        0.40620    0.75115    0.16870    1.000
    O31      O        0.12291    0.75396    0.37848    1.000
    O32      O        0.13690    0.71241    0.18499    1.000
    O33      O        0.09173    0.95954    0.61757    1.000
    O34      O        0.90960    0.00100    0.65370    1.000
    O35      O        0.42873    0.95835    0.38390    1.000
    O36      O        0.62000    0.00071    0.37236    1.000
    C13      C        0.18040    0.87655    0.43530    1.000
    C14      C        0.32870    0.87405    0.59020    1.000
    C15      C        0.18540    0.74118    0.27540    1.000
    C16      C        0.33560    0.76341    0.26210    1.000
    C17      C        0.99920    0.98899    0.57830    1.000
    C18      C        0.51430    0.98814    0.42940    1.000
    Cu7      Cu       0.75056    0.29642    0.98505    1.000
    Cu8      Cu       0.73979    0.45427    0.99924    1.000
    O37      O        0.89475    0.34579    0.11392    1.000
    O38      O        0.85275    0.40984    0.12874    1.000
    O39      O        0.62200    0.34001    0.86281    1.000
    O40      O        0.61334    0.40519    0.84448    1.000
    O41      O        0.62451    0.29339    0.14767    1.000
    O42      O        0.59380    0.25115    0.33130    1.000
    O43      O        0.87709    0.25396    0.12152    1.000
    O44      O        0.86310    0.21241    0.31501    1.000
    O45      O        0.90827    0.45954    0.88243    1.000
    O46      O        0.09040    0.50100    0.84630    1.000
    O47      O        0.57127    0.45835    0.11610    1.000
    O48      O        0.38000    0.50071    0.12764    1.000
    C19      C        0.81960    0.37655    0.06470    1.000
    C20      C        0.67130    0.37405    0.90980    1.000
    C21      C        0.81460    0.24118    0.22460    1.000
    C22      C        0.66440    0.26341    0.23790    1.000
    C23      C        0.00080    0.48899    0.92170    1.000
    C24      C        0.48570    0.48814    0.07060    1.000
