# CIF file generated by openbabel 3.1.0, see https://openbabel.org
data_I
_chemical_name_common 'image0'
_cell_length_a 23.985
_cell_length_b 15.449
_cell_length_c 7.34
_cell_angle_alpha 90
_cell_angle_beta 107.6
_cell_angle_gamma 90
_space_group_name_H-M_alt 'P 1'
_space_group_name_Hall 'P 1'
loop_
    _symmetry_equiv_pos_as_xyz
    x,y,z
loop_
    _atom_site_label
    _atom_site_type_symbol
    _atom_site_fract_x
    _atom_site_fract_y
    _atom_site_fract_z
    _atom_site_occupancy
    N1       N        0.27880    0.61770    0.02600    1.000
    C1       C        0.06190    0.71620    0.31620    1.000
    N2       N        0.18480    0.71800    0.74150    1.000
    N3       N        0.18960    0.71970    0.15900    1.000
    C2       C        0.12620    0.71750    0.38390    1.000
    C3       C        0.03150    0.71610    0.11960    1.000
    H1       H        0.05230    0.71620    0.03140    1.000
    C4       C        0.16000    0.71830    0.26230    1.000
    C5       C        0.15770    0.71760    0.58140    1.000
    C6       C        0.02910    0.71580    0.44450    1.000
    H2       H        0.04820    0.71530    0.57520    1.000
    C7       C        0.25940    0.46610    0.01850    1.000
    H3       H        0.23300    0.42160    0.01440    1.000
    C8       C        0.24200    0.55170    0.01640    1.000
    H4       H        0.20330    0.56360    0.00800    1.000
    O1       O        0.43950    0.57080    0.96010    1.000
    N4       N        0.43950    0.43010    0.02930    1.000
    H5       H        0.47220    0.42250    0.00610    1.000
    H6       H        0.42240    0.38700    0.06440    1.000
    C9       C        0.31660    0.44730    0.02670    1.000
    H7       H        0.32940    0.39030    0.03200    1.000
    C10      C        0.35450    0.51620    0.02690    1.000
    C11      C        0.33410    0.59920    0.03370    1.000
    H8       H        0.36010    0.64490    0.04430    1.000
    C12      C        0.41590    0.50630    0.01120    1.000
    O2       O        0.44110    0.57210    0.39300    1.000
    C13      C        0.35430    0.51300    0.19700    1.000
    N5       N        0.44250    0.42800    0.32000    1.000
    H9       H        0.47910    0.42140    0.37800    1.000
    H10      H        0.42170    0.38540    0.26290    1.000
    C14      C        0.41700    0.50800    0.31900    1.000
    C15      C        0.33360    0.60100    0.15600    1.000
    H11      H        0.35700    0.64640    0.21690    1.000
    C16      C        0.31790    0.44900    0.11700    1.000
    H12      H        0.33160    0.39190    0.12670    1.000
    N6       N        0.77880    0.11770    0.02600    1.000
    C17      C        0.56190    0.21620    0.31620    1.000
    N7       N        0.68480    0.21800    0.74150    1.000
    N8       N        0.68960    0.21970    0.15900    1.000
    C18      C        0.62620    0.21750    0.38390    1.000
    C19      C        0.53150    0.21610    0.11960    1.000
    H13      H        0.55230    0.21620    0.03140    1.000
    C20      C        0.66000    0.21830    0.26230    1.000
    C21      C        0.65770    0.21760    0.58140    1.000
    C22      C        0.52910    0.21580    0.44450    1.000
    H14      H        0.54820    0.21530    0.57520    1.000
    C23      C        0.75940    0.96610    0.01850    1.000
    H15      H        0.73300    0.92160    0.01440    1.000
    C24      C        0.74200    0.05170    0.01640    1.000
    H16      H        0.70330    0.06360    0.00800    1.000
    O3       O        0.93950    0.07080    0.96010    1.000
    N9       N        0.93950    0.93010    0.02930    1.000
    H17      H        0.97220    0.92250    0.00610    1.000
    H18      H        0.92240    0.88700    0.06440    1.000
    C25      C        0.81660    0.94730    0.02670    1.000
    H19      H        0.82940    0.89030    0.03200    1.000
    C26      C        0.85450    0.01620    0.02690    1.000
    C27      C        0.83410    0.09920    0.03370    1.000
    H20      H        0.86010    0.14490    0.04430    1.000
    C28      C        0.91590    0.00630    0.01120    1.000
    O4       O        0.94110    0.07210    0.39300    1.000
    C29      C        0.85430    0.01300    0.19700    1.000
    N10      N        0.94250    0.92800    0.32000    1.000
    H21      H        0.97910    0.92140    0.37800    1.000
    H22      H        0.92170    0.88540    0.26290    1.000
    C30      C        0.91700    0.00800    0.31900    1.000
    C31      C        0.83360    0.10100    0.15600    1.000
    H23      H        0.85700    0.14640    0.21690    1.000
    C32      C        0.81790    0.94900    0.11700    1.000
    H24      H        0.83160    0.89190    0.12670    1.000
    N11      N        0.72120    0.61770    0.47400    1.000
    C33      C        0.93810    0.71620    0.18380    1.000
    N12      N        0.81520    0.71800    0.75850    1.000
    N13      N        0.81040    0.71970    0.34100    1.000
    C34      C        0.87380    0.71750    0.11610    1.000
    C35      C        0.96850    0.71610    0.38040    1.000
    H25      H        0.94770    0.71620    0.46860    1.000
    C36      C        0.84000    0.71830    0.23770    1.000
    C37      C        0.84230    0.71760    0.91860    1.000
    C38      C        0.97090    0.71580    0.05550    1.000
    H26      H        0.95180    0.71530    0.92480    1.000
    C39      C        0.74060    0.46610    0.48150    1.000
    H27      H        0.76700    0.42160    0.48560    1.000
    C40      C        0.75800    0.55170    0.48360    1.000
    H28      H        0.79670    0.56360    0.49200    1.000
    O5       O        0.56050    0.57080    0.53990    1.000
    N14      N        0.56050    0.43010    0.47070    1.000
    H29      H        0.52780    0.42250    0.49390    1.000
    H30      H        0.57760    0.38700    0.43560    1.000
    C41      C        0.68340    0.44730    0.47330    1.000
    H31      H        0.67060    0.39030    0.46800    1.000
    C42      C        0.64550    0.51620    0.47310    1.000
    C43      C        0.66590    0.59920    0.46630    1.000
    H32      H        0.63990    0.64490    0.45570    1.000
    C44      C        0.58410    0.50630    0.48880    1.000
    O6       O        0.55890    0.57210    0.10700    1.000
    C45      C        0.64570    0.51300    0.30300    1.000
    N15      N        0.55750    0.42800    0.18000    1.000
    H33      H        0.52090    0.42140    0.12200    1.000
    H34      H        0.57830    0.38540    0.23710    1.000
    C46      C        0.58300    0.50800    0.18100    1.000
    C47      C        0.66640    0.60100    0.34400    1.000
    H35      H        0.64300    0.64640    0.28310    1.000
    C48      C        0.68210    0.44900    0.38300    1.000
    H36      H        0.66840    0.39190    0.37330    1.000
    N16      N        0.22120    0.11770    0.47400    1.000
    C49      C        0.43810    0.21620    0.18380    1.000
    N17      N        0.31520    0.21800    0.75850    1.000
    N18      N        0.31040    0.21970    0.34100    1.000
    C50      C        0.37380    0.21750    0.11610    1.000
    C51      C        0.46850    0.21610    0.38040    1.000
    H37      H        0.44770    0.21620    0.46860    1.000
    C52      C        0.34000    0.21830    0.23770    1.000
    C53      C        0.34230    0.21760    0.91860    1.000
    C54      C        0.47090    0.21580    0.05550    1.000
    H38      H        0.45180    0.21530    0.92480    1.000
    C55      C        0.24060    0.96610    0.48150    1.000
    H39      H        0.26700    0.92160    0.48560    1.000
    C56      C        0.25800    0.05170    0.48360    1.000
    H40      H        0.29670    0.06360    0.49200    1.000
    O7       O        0.06050    0.07080    0.53990    1.000
    N19      N        0.06050    0.93010    0.47070    1.000
    H41      H        0.02780    0.92250    0.49390    1.000
    H42      H        0.07760    0.88700    0.43560    1.000
    C57      C        0.18340    0.94730    0.47330    1.000
    H43      H        0.17060    0.89030    0.46800    1.000
    C58      C        0.14550    0.01620    0.47310    1.000
    C59      C        0.16590    0.09920    0.46630    1.000
    H44      H        0.13990    0.14490    0.45570    1.000
    C60      C        0.08410    0.00630    0.48880    1.000
    O8       O        0.05890    0.07210    0.10700    1.000
    C61      C        0.14570    0.01300    0.30300    1.000
    N20      N        0.05750    0.92800    0.18000    1.000
    H45      H        0.02090    0.92140    0.12200    1.000
    H46      H        0.07830    0.88540    0.23710    1.000
    C62      C        0.08300    0.00800    0.18100    1.000
    C63      C        0.16640    0.10100    0.34400    1.000
    H47      H        0.14300    0.14640    0.28310    1.000
    C64      C        0.18210    0.94900    0.38300    1.000
    H48      H        0.16840    0.89190    0.37330    1.000
    N21      N        0.72120    0.38230    0.97400    1.000
    C65      C        0.93810    0.28380    0.68380    1.000
    N22      N        0.81520    0.28200    0.25850    1.000
    N23      N        0.81040    0.28030    0.84100    1.000
    C66      C        0.87380    0.28250    0.61610    1.000
    C67      C        0.96850    0.28390    0.88040    1.000
    H49      H        0.94770    0.28380    0.96860    1.000
    C68      C        0.84000    0.28170    0.73770    1.000
    C69      C        0.84230    0.28240    0.41860    1.000
    C70      C        0.97090    0.28420    0.55550    1.000
    H50      H        0.95180    0.28470    0.42480    1.000
    C71      C        0.74060    0.53390    0.98150    1.000
    H51      H        0.76700    0.57840    0.98560    1.000
    C72      C        0.75800    0.44830    0.98360    1.000
    H52      H        0.79670    0.43640    0.99200    1.000
    O9       O        0.56050    0.42920    0.03990    1.000
    N24      N        0.56050    0.56990    0.97070    1.000
    H53      H        0.52780    0.57750    0.99390    1.000
    H54      H        0.57760    0.61300    0.93560    1.000
    C73      C        0.68340    0.55270    0.97330    1.000
    H55      H        0.67060    0.60970    0.96800    1.000
    C74      C        0.64550    0.48380    0.97310    1.000
    C75      C        0.66590    0.40080    0.96630    1.000
    H56      H        0.63990    0.35510    0.95570    1.000
    C76      C        0.58410    0.49370    0.98880    1.000
    O10      O        0.55890    0.42790    0.60700    1.000
    C77      C        0.64570    0.48700    0.80300    1.000
    N25      N        0.55750    0.57200    0.68000    1.000
    H57      H        0.52090    0.57860    0.62200    1.000
    H58      H        0.57830    0.61460    0.73710    1.000
    C78      C        0.58300    0.49200    0.68100    1.000
    C79      C        0.66640    0.39900    0.84400    1.000
    H59      H        0.64300    0.35360    0.78310    1.000
    C80      C        0.68210    0.55100    0.88300    1.000
    H60      H        0.66840    0.60810    0.87330    1.000
    N26      N        0.22120    0.88230    0.97400    1.000
    C81      C        0.43810    0.78380    0.68380    1.000
    N27      N        0.31520    0.78200    0.25850    1.000
    N28      N        0.31040    0.78030    0.84100    1.000
    C82      C        0.37380    0.78250    0.61610    1.000
    C83      C        0.46850    0.78390    0.88040    1.000
    H61      H        0.44770    0.78380    0.96860    1.000
    C84      C        0.34000    0.78170    0.73770    1.000
    C85      C        0.34230    0.78240    0.41860    1.000
    C86      C        0.47090    0.78420    0.55550    1.000
    H62      H        0.45180    0.78470    0.42480    1.000
    C87      C        0.24060    0.03390    0.98150    1.000
    H63      H        0.26700    0.07840    0.98560    1.000
    C88      C        0.25800    0.94830    0.98360    1.000
    H64      H        0.29670    0.93640    0.99200    1.000
    O11      O        0.06050    0.92920    0.03990    1.000
    N29      N        0.06050    0.06990    0.97070    1.000
    H65      H        0.02780    0.07750    0.99390    1.000
    H66      H        0.07760    0.11300    0.93560    1.000
    C89      C        0.18340    0.05270    0.97330    1.000
    H67      H        0.17060    0.10970    0.96800    1.000
    C90      C        0.14550    0.98380    0.97310    1.000
    C91      C        0.16590    0.90080    0.96630    1.000
    H68      H        0.13990    0.85510    0.95570    1.000
    C92      C        0.08410    0.99370    0.98880    1.000
    O12      O        0.05890    0.92790    0.60700    1.000
    C93      C        0.14570    0.98700    0.80300    1.000
    N30      N        0.05750    0.07200    0.68000    1.000
    H69      H        0.02090    0.07860    0.62200    1.000
    H70      H        0.07830    0.11460    0.73710    1.000
    C94      C        0.08300    0.99200    0.68100    1.000
    C95      C        0.16640    0.89900    0.84400    1.000
    H71      H        0.14300    0.85360    0.78310    1.000
    C96      C        0.18210    0.05100    0.88300    1.000
    H72      H        0.16840    0.10810    0.87330    1.000
    N31      N        0.27880    0.38230    0.52600    1.000
    C97      C        0.06190    0.28380    0.81620    1.000
    N32      N        0.18480    0.28200    0.24150    1.000
    N33      N        0.18960    0.28030    0.65900    1.000
    C98      C        0.12620    0.28250    0.88390    1.000
    C99      C        0.03150    0.28390    0.61960    1.000
    H73      H        0.05230    0.28380    0.53140    1.000
    C100     C        0.16000    0.28170    0.76230    1.000
    C101     C        0.15770    0.28240    0.08140    1.000
    C102     C        0.02910    0.28420    0.94450    1.000
    H74      H        0.04820    0.28470    0.07520    1.000
    C103     C        0.25940    0.53390    0.51850    1.000
    H75      H        0.23300    0.57840    0.51440    1.000
    C104     C        0.24200    0.44830    0.51640    1.000
    H76      H        0.20330    0.43640    0.50800    1.000
    O13      O        0.43950    0.42920    0.46010    1.000
    N34      N        0.43950    0.56990    0.52930    1.000
    H77      H        0.47220    0.57750    0.50610    1.000
    H78      H        0.42240    0.61300    0.56440    1.000
    C105     C        0.31660    0.55270    0.52670    1.000
    H79      H        0.32940    0.60970    0.53200    1.000
    C106     C        0.35450    0.48380    0.52690    1.000
    C107     C        0.33410    0.40080    0.53370    1.000
    H80      H        0.36010    0.35510    0.54430    1.000
    C108     C        0.41590    0.49370    0.51120    1.000
    O14      O        0.44110    0.42790    0.89300    1.000
    C109     C        0.35430    0.48700    0.69700    1.000
    N35      N        0.44250    0.57200    0.82000    1.000
    H81      H        0.47910    0.57860    0.87800    1.000
    H82      H        0.42170    0.61460    0.76290    1.000
    C110     C        0.41700    0.49200    0.81900    1.000
    C111     C        0.33360    0.39900    0.65600    1.000
    H83      H        0.35700    0.35360    0.71690    1.000
    C112     C        0.31790    0.55100    0.61700    1.000
    H84      H        0.33160    0.60810    0.62670    1.000
    N36      N        0.77880    0.88230    0.52600    1.000
    C113     C        0.56190    0.78380    0.81620    1.000
    N37      N        0.68480    0.78200    0.24150    1.000
    N38      N        0.68960    0.78030    0.65900    1.000
    C114     C        0.62620    0.78250    0.88390    1.000
    C115     C        0.53150    0.78390    0.61960    1.000
    H85      H        0.55230    0.78380    0.53140    1.000
    C116     C        0.66000    0.78170    0.76230    1.000
    C117     C        0.65770    0.78240    0.08140    1.000
    C118     C        0.52910    0.78420    0.94450    1.000
    H86      H        0.54820    0.78470    0.07520    1.000
    C119     C        0.75940    0.03390    0.51850    1.000
    H87      H        0.73300    0.07840    0.51440    1.000
    C120     C        0.74200    0.94830    0.51640    1.000
    H88      H        0.70330    0.93640    0.50800    1.000
    O15      O        0.93950    0.92920    0.46010    1.000
    N39      N        0.93950    0.06990    0.52930    1.000
    H89      H        0.97220    0.07750    0.50610    1.000
    H90      H        0.92240    0.11300    0.56440    1.000
    C121     C        0.81660    0.05270    0.52670    1.000
    H91      H        0.82940    0.10970    0.53200    1.000
    C122     C        0.85450    0.98380    0.52690    1.000
    C123     C        0.83410    0.90080    0.53370    1.000
    H92      H        0.86010    0.85510    0.54430    1.000
    C124     C        0.91590    0.99370    0.51120    1.000
    O16      O        0.94110    0.92790    0.89300    1.000
    C125     C        0.85430    0.98700    0.69700    1.000
    N40      N        0.94250    0.07200    0.82000    1.000
    H93      H        0.97910    0.07860    0.87800    1.000
    H94      H        0.92170    0.11460    0.76290    1.000
    C126     C        0.91700    0.99200    0.81900    1.000
    C127     C        0.83360    0.89900    0.65600    1.000
    H95      H        0.85700    0.85360    0.71690    1.000
    C128     C        0.81790    0.05100    0.61700    1.000
    H96      H        0.83160    0.10810    0.62670    1.000
    Zn1      Zn       0.25000    0.75000    0.00000    1.000
    Zn2      Zn       0.75000    0.75000    0.50000    1.000
    Zn3      Zn       0.75000    0.25000    0.00000    1.000
    Zn4      Zn       0.25000    0.25000    0.50000    1.000
