# CIF file generated by openbabel 3.1.0, see https://openbabel.org
data_I
_chemical_name_common 'HEBJAB_clean'
_cell_length_a 9.73
_cell_length_b 10.19
_cell_length_c 19.529
_cell_angle_alpha 78.011
_cell_angle_beta 80.4
_cell_angle_gamma 87.705
_space_group_name_H-M_alt 'P 1'
_space_group_name_Hall 'P 1'
loop_
    _symmetry_equiv_pos_as_xyz
    x,y,z
loop_
    _atom_site_label
    _atom_site_type_symbol
    _atom_site_fract_x
    _atom_site_fract_y
    _atom_site_fract_z
    _atom_site_occupancy
    Co1      Co       0.31389    0.60439    0.27743    1.000
    Co2      Co       0.68611    0.39561    0.72257    1.000
    Co3      Co       0.00000    0.00000    0.00000    1.000
    H1       H        0.29430    0.07180    0.26360    1.000
    H2       H        0.26380    0.83300    0.45700    1.000
    H3       H        0.23550    0.23340    0.43740    1.000
    H4       H        0.15520    0.83810    0.57130    1.000
    H5       H        0.31850    0.84840    0.56110    1.000
    H6       H        0.42840    0.91160    0.65350    1.000
    H7       H        0.41390    0.92190    0.77160    1.000
    H8       H        0.99540    0.92020    0.79330    1.000
    H9       H        0.01220    0.90180    0.67620    1.000
    H10      H        0.56590    0.77970    0.19920    1.000
    H11      H        0.79100    0.76410    0.14370    1.000
    H12      H        0.77930    0.37060    0.22690    1.000
    H13      H        0.55480    0.39680    0.27860    1.000
    H14      H        0.99460    0.46080    0.15980    1.000
    H15      H        0.01690    0.61600    0.14760    1.000
    H16      H        0.91240    0.36480    0.07190    1.000
    H17      H        0.78300    0.46170    0.06970    1.000
    H18      H        0.14710    0.45840    0.05150    1.000
    H19      H        0.16610    0.61460    0.03630    1.000
    H20      H        0.05050    0.76570    0.23680    1.000
    H21      H        0.82550    0.80750    0.28610    1.000
    H22      H        0.86710    0.51570    0.45370    1.000
    H23      H        0.09180    0.48220    0.39950    1.000
    H24      H        0.61440    0.72210    0.37430    1.000
    H25      H        0.67740    0.77740    0.43150    1.000
    H26      H        0.49690    0.51830    0.40360    1.000
    H27      H        0.64530    0.45150    0.40220    1.000
    H28      H        0.52220    0.70260    0.53260    1.000
    H29      H        0.42220    0.67130    0.48270    1.000
    H30      H        0.70570    0.92820    0.73640    1.000
    H31      H        0.73620    0.16700    0.54300    1.000
    H32      H        0.76450    0.76660    0.56260    1.000
    H33      H        0.84480    0.16190    0.42870    1.000
    H34      H        0.68150    0.15160    0.43890    1.000
    H35      H        0.57160    0.08840    0.34650    1.000
    H36      H        0.58610    0.07810    0.22840    1.000
    H37      H        0.00460    0.07980    0.20670    1.000
    H38      H        0.98780    0.09820    0.32380    1.000
    H39      H        0.43410    0.22030    0.80080    1.000
    H40      H        0.20900    0.23590    0.85630    1.000
    H41      H        0.22070    0.62940    0.77310    1.000
    H42      H        0.44520    0.60320    0.72140    1.000
    H43      H        0.00540    0.53920    0.84020    1.000
    H44      H        0.98310    0.38400    0.85240    1.000
    H45      H        0.08760    0.63520    0.92810    1.000
    H46      H        0.21700    0.53830    0.93030    1.000
    H47      H        0.85290    0.54160    0.94850    1.000
    H48      H        0.83390    0.38540    0.96370    1.000
    H49      H        0.94950    0.23430    0.76320    1.000
    H50      H        0.17450    0.19250    0.71390    1.000
    H51      H        0.13290    0.48430    0.54630    1.000
    H52      H        0.90820    0.51780    0.60050    1.000
    H53      H        0.38560    0.27790    0.62570    1.000
    H54      H        0.32260    0.22260    0.56850    1.000
    H55      H        0.50310    0.48170    0.59640    1.000
    H56      H        0.35470    0.54850    0.59780    1.000
    H57      H        0.47780    0.29740    0.46740    1.000
    H58      H        0.57780    0.32870    0.51730    1.000
    C1       C        0.26520    0.31190    0.29750    1.000
    C2       C        0.26390    0.17420    0.34410    1.000
    C3       C        0.28320    0.06200    0.31270    1.000
    C4       C        0.28530    0.93590    0.35610    1.000
    C5       C        0.31120    0.81300    0.32410    1.000
    C6       C        0.26440    0.91880    0.42890    1.000
    C7       C        0.24420    0.03070    0.46060    1.000
    C8       C        0.24620    0.15810    0.41700    1.000
    C9       C        0.23150    0.89210    0.57610    1.000
    C10      C        0.22180    0.90510    0.65230    1.000
    C11      C        0.34150    0.91200    0.68170    1.000
    C12      C        0.33310    0.91940    0.75230    1.000
    C13      C        0.20270    0.92320    0.79450    1.000
    C14      C        0.08250    0.91730    0.76560    1.000
    C15      C        0.09290    0.90720    0.69510    1.000
    C16      C        0.19160    0.93270    0.87160    1.000
    C17      C        0.60870    0.69580    0.20410    1.000
    C18      C        0.74490    0.68740    0.17050    1.000
    C19      C        0.81250    0.56350    0.17710    1.000
    C20      C        0.73780    0.45510    0.21950    1.000
    C21      C        0.60240    0.47170    0.25070    1.000
    C22      C        0.95810    0.54770    0.13970    1.000
    C23      C        0.87970    0.45150    0.04920    1.000
    C24      C        0.11020    0.54350    0.02910    1.000
    C25      C        0.01360    0.71460    0.28080    1.000
    C26      C        0.87760    0.74060    0.31050    1.000
    C27      C        0.81990    0.66760    0.37590    1.000
    C28      C        0.90180    0.56810    0.40970    1.000
    C29      C        0.03730    0.54830    0.37630    1.000
    C30      C        0.67360    0.69960    0.41050    1.000
    C31      C        0.56680    0.48240    0.43260    1.000
    C32      C        0.49300    0.63340    0.51080    1.000
    C33      C        0.73480    0.68810    0.70250    1.000
    C34      C        0.73610    0.82580    0.65590    1.000
    C35      C        0.71680    0.93800    0.68730    1.000
    C36      C        0.71470    0.06410    0.64390    1.000
    C37      C        0.68880    0.18700    0.67590    1.000
    C38      C        0.73560    0.08120    0.57110    1.000
    C39      C        0.75580    0.96930    0.53940    1.000
    C40      C        0.75380    0.84190    0.58300    1.000
    C41      C        0.76850    0.10790    0.42390    1.000
    C42      C        0.77820    0.09490    0.34770    1.000
    C43      C        0.65850    0.08800    0.31830    1.000
    C44      C        0.66690    0.08060    0.24770    1.000
    C45      C        0.79730    0.07680    0.20550    1.000
    C46      C        0.91750    0.08270    0.23440    1.000
    C47      C        0.90710    0.09280    0.30490    1.000
    C48      C        0.80840    0.06730    0.12840    1.000
    C49      C        0.39130    0.30420    0.79590    1.000
    C50      C        0.25510    0.31260    0.82950    1.000
    C51      C        0.18750    0.43650    0.82290    1.000
    C52      C        0.26220    0.54490    0.78050    1.000
    C53      C        0.39760    0.52830    0.74930    1.000
    C54      C        0.04190    0.45230    0.86030    1.000
    C55      C        0.12030    0.54850    0.95080    1.000
    C56      C        0.88980    0.45650    0.97090    1.000
    C57      C        0.98640    0.28540    0.71920    1.000
    C58      C        0.12240    0.25940    0.68950    1.000
    C59      C        0.18010    0.33240    0.62410    1.000
    C60      C        0.09820    0.43190    0.59030    1.000
    C61      C        0.96270    0.45170    0.62370    1.000
    C62      C        0.32640    0.30040    0.58950    1.000
    C63      C        0.43320    0.51760    0.56740    1.000
    C64      C        0.50700    0.36660    0.48920    1.000
    N1       N        0.53530    0.59070    0.24289    1.000
    N2       N        0.96380    0.55890    0.06265    1.000
    N3       N        0.09330    0.61910    0.31283    1.000
    N4       N        0.61300    0.58860    0.46458    1.000
    N5       N        0.46470    0.40930    0.75711    1.000
    N6       N        0.03620    0.44110    0.93735    1.000
    N7       N        0.90670    0.38090    0.68717    1.000
    N8       N        0.38700    0.41140    0.53542    1.000
    O1       O        0.30220    0.40590    0.32374    1.000
    O2       O        0.23130    0.32550    0.23729    1.000
    O3       O        0.32180    0.82280    0.25753    1.000
    O4       O        0.32060    0.70040    0.36468    1.000
    O5       O        0.08470    0.99450    0.89611    1.000
    O6       O        0.28600    0.88280    0.90534    1.000
    O7       O        0.22510    0.02440    0.53251    1.000
    O8       O        0.69780    0.59410    0.67626    1.000
    O9       O        0.76870    0.67450    0.76271    1.000
    O10      O        0.67820    0.17720    0.74247    1.000
    O11      O        0.67940    0.29960    0.63532    1.000
    O12      O        0.91530    0.00550    0.10389    1.000
    O13      O        0.71400    0.11720    0.09466    1.000
    O14      O        0.77490    0.97560    0.46749    1.000
