# CIF file generated by openbabel 3.1.0, see https://openbabel.org
data_I
_chemical_name_common 'image0'
_cell_length_a 19.6675
_cell_length_b 11.9457
_cell_length_c 21.9773
_cell_angle_alpha 90
_cell_angle_beta 97.166
_cell_angle_gamma 90
_space_group_name_H-M_alt 'P 1'
_space_group_name_Hall 'P 1'
loop_
    _symmetry_equiv_pos_as_xyz
    x,y,z
loop_
    _atom_site_label
    _atom_site_type_symbol
    _atom_site_fract_x
    _atom_site_fract_y
    _atom_site_fract_z
    _atom_site_occupancy
    Eu1      Eu       0.33155    0.32989    0.97432    1.000
    O1       O        0.30013    0.15610    0.01561    1.000
    O2       O        0.17794    0.13580    0.91845    1.000
    O3       O        0.24169    0.00070    0.02346    1.000
    O4       O        0.26671    0.23310    0.89176    1.000
    O5       O        0.55136    0.72130    0.97731    1.000
    C1       C        0.16430    0.17320    0.71110    1.000
    H1       H        0.15140    0.22860    0.68080    1.000
    O6       O        0.15150    0.92880    0.61433    1.000
    O7       O        0.58393    0.78490    0.06972    1.000
    C2       C        0.18830    0.81840    0.84550    1.000
    H2       H        0.14910    0.80560    0.81650    1.000
    O8       O        0.09562    0.09070    0.59829    1.000
    C3       C        0.21840    0.16650    0.88140    1.000
    C4       C        0.47610    0.84730    0.02100    1.000
    C5       C        0.42010    0.82500    0.97700    1.000
    H3       H        0.42230    0.76510    0.94890    1.000
    N1       N        0.27680    0.94510    0.88923    1.000
    C6       C        0.29980    0.86370    0.92840    1.000
    C7       C        0.13440    0.02440    0.63080    1.000
    C8       C        0.35910    0.98140    0.01390    1.000
    C9       C        0.20350    0.12390    0.81630    1.000
    C10      C        0.41630    0.00440    0.05700    1.000
    H4       H        0.41580    0.06750    0.08330    1.000
    C11      C        0.54030    0.77960    0.02270    1.000
    C12      C        0.20110    0.01050    0.80120    1.000
    C13      C        0.22250    0.92140    0.84740    1.000
    C14      C        0.18010    0.97970    0.74020    1.000
    H5       H        0.17940    0.90280    0.72910    1.000
    C15      C        0.47360    0.93540    0.06160    1.000
    H6       H        0.51110    0.94880    0.09240    1.000
    C16      C        0.18720    0.20490    0.77070    1.000
    H7       H        0.19200    0.28210    0.78070    1.000
    C17      C        0.29670    0.04950    0.01700    1.000
    C18      C        0.36050    0.89090    0.97420    1.000
    C19      C        0.21280    0.73560    0.88650    1.000
    H8       H        0.19070    0.66490    0.88620    1.000
    C20      C        0.16020    0.06030    0.69550    1.000
    C21      C        0.27000    0.75760    0.92810    1.000
    H9       H        0.28880    0.70140    0.95590    1.000
    Eu2      Eu       0.83155    0.82989    0.97432    1.000
    O9       O        0.80013    0.65610    0.01561    1.000
    O10      O        0.67794    0.63580    0.91845    1.000
    O11      O        0.74169    0.50070    0.02346    1.000
    O12      O        0.76671    0.73310    0.89176    1.000
    O13      O        0.05136    0.22130    0.97731    1.000
    C22      C        0.66430    0.67320    0.71110    1.000
    H10      H        0.65140    0.72860    0.68080    1.000
    O14      O        0.65150    0.42880    0.61433    1.000
    O15      O        0.08393    0.28490    0.06972    1.000
    C23      C        0.68830    0.31840    0.84550    1.000
    H11      H        0.64910    0.30560    0.81650    1.000
    O16      O        0.59562    0.59070    0.59829    1.000
    C24      C        0.71840    0.66650    0.88140    1.000
    C25      C        0.97610    0.34730    0.02100    1.000
    C26      C        0.92010    0.32500    0.97700    1.000
    H12      H        0.92230    0.26510    0.94890    1.000
    N2       N        0.77680    0.44510    0.88923    1.000
    C27      C        0.79980    0.36370    0.92840    1.000
    C28      C        0.63440    0.52440    0.63080    1.000
    C29      C        0.85910    0.48140    0.01390    1.000
    C30      C        0.70350    0.62390    0.81630    1.000
    C31      C        0.91630    0.50440    0.05700    1.000
    H13      H        0.91580    0.56750    0.08330    1.000
    C32      C        0.04030    0.27960    0.02270    1.000
    C33      C        0.70110    0.51050    0.80120    1.000
    C34      C        0.72250    0.42140    0.84740    1.000
    C35      C        0.68010    0.47970    0.74020    1.000
    H14      H        0.67940    0.40280    0.72910    1.000
    C36      C        0.97360    0.43540    0.06160    1.000
    H15      H        0.01110    0.44880    0.09240    1.000
    C37      C        0.68720    0.70490    0.77070    1.000
    H16      H        0.69200    0.78210    0.78070    1.000
    C38      C        0.79670    0.54950    0.01700    1.000
    C39      C        0.86050    0.39090    0.97420    1.000
    C40      C        0.71280    0.23560    0.88650    1.000
    H17      H        0.69070    0.16490    0.88620    1.000
    C41      C        0.66020    0.56030    0.69550    1.000
    C42      C        0.77000    0.25760    0.92810    1.000
    H18      H        0.78880    0.20140    0.95590    1.000
    Eu3      Eu       0.66845    0.32989    0.52568    1.000
    O17      O        0.69987    0.15610    0.48439    1.000
    O18      O        0.82206    0.13580    0.58155    1.000
    O19      O        0.75831    0.00070    0.47654    1.000
    O20      O        0.73329    0.23310    0.60824    1.000
    O21      O        0.44864    0.72130    0.52269    1.000
    C43      C        0.83570    0.17320    0.78890    1.000
    H19      H        0.84860    0.22860    0.81920    1.000
    O22      O        0.84850    0.92880    0.88567    1.000
    O23      O        0.41607    0.78490    0.43028    1.000
    C44      C        0.81170    0.81840    0.65450    1.000
    H20      H        0.85090    0.80560    0.68350    1.000
    O24      O        0.90438    0.09070    0.90171    1.000
    C45      C        0.78160    0.16650    0.61860    1.000
    C46      C        0.52390    0.84730    0.47900    1.000
    C47      C        0.57990    0.82500    0.52300    1.000
    H21      H        0.57770    0.76510    0.55110    1.000
    N3       N        0.72320    0.94510    0.61077    1.000
    C48      C        0.70020    0.86370    0.57160    1.000
    C49      C        0.86560    0.02440    0.86920    1.000
    C50      C        0.64090    0.98140    0.48610    1.000
    C51      C        0.79650    0.12390    0.68370    1.000
    C52      C        0.58370    0.00440    0.44300    1.000
    H22      H        0.58420    0.06750    0.41670    1.000
    C53      C        0.45970    0.77960    0.47730    1.000
    C54      C        0.79890    0.01050    0.69880    1.000
    C55      C        0.77750    0.92140    0.65260    1.000
    C56      C        0.81990    0.97970    0.75980    1.000
    H23      H        0.82060    0.90280    0.77090    1.000
    C57      C        0.52640    0.93540    0.43840    1.000
    H24      H        0.48890    0.94880    0.40760    1.000
    C58      C        0.81280    0.20490    0.72930    1.000
    H25      H        0.80800    0.28210    0.71930    1.000
    C59      C        0.70330    0.04950    0.48300    1.000
    C60      C        0.63950    0.89090    0.52580    1.000
    C61      C        0.78720    0.73560    0.61350    1.000
    H26      H        0.80930    0.66490    0.61380    1.000
    C62      C        0.83980    0.06030    0.80450    1.000
    C63      C        0.73000    0.75760    0.57190    1.000
    H27      H        0.71120    0.70140    0.54410    1.000
    Eu4      Eu       0.16845    0.82989    0.52568    1.000
    O25      O        0.19987    0.65610    0.48439    1.000
    O26      O        0.32206    0.63580    0.58155    1.000
    O27      O        0.25831    0.50070    0.47654    1.000
    O28      O        0.23329    0.73310    0.60824    1.000
    O29      O        0.94864    0.22130    0.52269    1.000
    C64      C        0.33570    0.67320    0.78890    1.000
    H28      H        0.34860    0.72860    0.81920    1.000
    O30      O        0.34850    0.42880    0.88567    1.000
    O31      O        0.91607    0.28490    0.43028    1.000
    C65      C        0.31170    0.31840    0.65450    1.000
    H29      H        0.35090    0.30560    0.68350    1.000
    O32      O        0.40438    0.59070    0.90171    1.000
    C66      C        0.28160    0.66650    0.61860    1.000
    C67      C        0.02390    0.34730    0.47900    1.000
    C68      C        0.07990    0.32500    0.52300    1.000
    H30      H        0.07770    0.26510    0.55110    1.000
    N4       N        0.22320    0.44510    0.61077    1.000
    C69      C        0.20020    0.36370    0.57160    1.000
    C70      C        0.36560    0.52440    0.86920    1.000
    C71      C        0.14090    0.48140    0.48610    1.000
    C72      C        0.29650    0.62390    0.68370    1.000
    C73      C        0.08370    0.50440    0.44300    1.000
    H31      H        0.08420    0.56750    0.41670    1.000
    C74      C        0.95970    0.27960    0.47730    1.000
    C75      C        0.29890    0.51050    0.69880    1.000
    C76      C        0.27750    0.42140    0.65260    1.000
    C77      C        0.31990    0.47970    0.75980    1.000
    H32      H        0.32060    0.40280    0.77090    1.000
    C78      C        0.02640    0.43540    0.43840    1.000
    H33      H        0.98890    0.44880    0.40760    1.000
    C79      C        0.31280    0.70490    0.72930    1.000
    H34      H        0.30800    0.78210    0.71930    1.000
    C80      C        0.20330    0.54950    0.48300    1.000
    C81      C        0.13950    0.39090    0.52580    1.000
    C82      C        0.28720    0.23560    0.61350    1.000
    H35      H        0.30930    0.16490    0.61380    1.000
    C83      C        0.33980    0.56030    0.80450    1.000
    C84      C        0.23000    0.25760    0.57190    1.000
    H36      H        0.21120    0.20140    0.54410    1.000
    Eu5      Eu       0.66845    0.67011    0.02568    1.000
    O33      O        0.69987    0.84390    0.98439    1.000
    O34      O        0.82206    0.86420    0.08155    1.000
    O35      O        0.75831    0.99930    0.97654    1.000
    O36      O        0.73329    0.76690    0.10824    1.000
    O37      O        0.44864    0.27870    0.02269    1.000
    C85      C        0.83570    0.82680    0.28890    1.000
    H37      H        0.84860    0.77140    0.31920    1.000
    O38      O        0.84850    0.07120    0.38567    1.000
    O39      O        0.41607    0.21510    0.93028    1.000
    C86      C        0.81170    0.18160    0.15450    1.000
    H38      H        0.85090    0.19440    0.18350    1.000
    O40      O        0.90438    0.90930    0.40171    1.000
    C87      C        0.78160    0.83350    0.11860    1.000
    C88      C        0.52390    0.15270    0.97900    1.000
    C89      C        0.57990    0.17500    0.02300    1.000
    H39      H        0.57770    0.23490    0.05110    1.000
    N5       N        0.72320    0.05490    0.11077    1.000
    C90      C        0.70020    0.13630    0.07160    1.000
    C91      C        0.86560    0.97560    0.36920    1.000
    C92      C        0.64090    0.01860    0.98610    1.000
    C93      C        0.79650    0.87610    0.18370    1.000
    C94      C        0.58370    0.99560    0.94300    1.000
    H40      H        0.58420    0.93250    0.91670    1.000
    C95      C        0.45970    0.22040    0.97730    1.000
    C96      C        0.79890    0.98950    0.19880    1.000
    C97      C        0.77750    0.07860    0.15260    1.000
    C98      C        0.81990    0.02030    0.25980    1.000
    H41      H        0.82060    0.09720    0.27090    1.000
    C99      C        0.52640    0.06460    0.93840    1.000
    H42      H        0.48890    0.05120    0.90760    1.000
    C100     C        0.81280    0.79510    0.22930    1.000
    H43      H        0.80800    0.71790    0.21930    1.000
    C101     C        0.70330    0.95050    0.98300    1.000
    C102     C        0.63950    0.10910    0.02580    1.000
    C103     C        0.78720    0.26440    0.11350    1.000
    H44      H        0.80930    0.33510    0.11380    1.000
    C104     C        0.83980    0.93970    0.30450    1.000
    C105     C        0.73000    0.24240    0.07190    1.000
    H45      H        0.71120    0.29860    0.04410    1.000
    Eu6      Eu       0.16845    0.17011    0.02568    1.000
    O41      O        0.19987    0.34390    0.98439    1.000
    O42      O        0.32206    0.36420    0.08155    1.000
    O43      O        0.25831    0.49930    0.97654    1.000
    O44      O        0.23329    0.26690    0.10824    1.000
    O45      O        0.94864    0.77870    0.02269    1.000
    C106     C        0.33570    0.32680    0.28890    1.000
    H46      H        0.34860    0.27140    0.31920    1.000
    O46      O        0.34850    0.57120    0.38567    1.000
    O47      O        0.91607    0.71510    0.93028    1.000
    C107     C        0.31170    0.68160    0.15450    1.000
    H47      H        0.35090    0.69440    0.18350    1.000
    O48      O        0.40438    0.40930    0.40171    1.000
    C108     C        0.28160    0.33350    0.11860    1.000
    C109     C        0.02390    0.65270    0.97900    1.000
    C110     C        0.07990    0.67500    0.02300    1.000
    H48      H        0.07770    0.73490    0.05110    1.000
    N6       N        0.22320    0.55490    0.11077    1.000
    C111     C        0.20020    0.63630    0.07160    1.000
    C112     C        0.36560    0.47560    0.36920    1.000
    C113     C        0.14090    0.51860    0.98610    1.000
    C114     C        0.29650    0.37610    0.18370    1.000
    C115     C        0.08370    0.49560    0.94300    1.000
    H49      H        0.08420    0.43250    0.91670    1.000
    C116     C        0.95970    0.72040    0.97730    1.000
    C117     C        0.29890    0.48950    0.19880    1.000
    C118     C        0.27750    0.57860    0.15260    1.000
    C119     C        0.31990    0.52030    0.25980    1.000
    H50      H        0.32060    0.59720    0.27090    1.000
    C120     C        0.02640    0.56460    0.93840    1.000
    H51      H        0.98890    0.55120    0.90760    1.000
    C121     C        0.31280    0.29510    0.22930    1.000
    H52      H        0.30800    0.21790    0.21930    1.000
    C122     C        0.20330    0.45050    0.98300    1.000
    C123     C        0.13950    0.60910    0.02580    1.000
    C124     C        0.28720    0.76440    0.11350    1.000
    H53      H        0.30930    0.83510    0.11380    1.000
    C125     C        0.33980    0.43970    0.30450    1.000
    C126     C        0.23000    0.74240    0.07190    1.000
    H54      H        0.21120    0.79860    0.04410    1.000
    Eu7      Eu       0.33155    0.67011    0.47432    1.000
    O49      O        0.30013    0.84390    0.51561    1.000
    O50      O        0.17794    0.86420    0.41845    1.000
    O51      O        0.24169    0.99930    0.52346    1.000
    O52      O        0.26671    0.76690    0.39176    1.000
    O53      O        0.55136    0.27870    0.47731    1.000
    C127     C        0.16430    0.82680    0.21110    1.000
    H55      H        0.15140    0.77140    0.18080    1.000
    O54      O        0.15150    0.07120    0.11433    1.000
    O55      O        0.58393    0.21510    0.56972    1.000
    C128     C        0.18830    0.18160    0.34550    1.000
    H56      H        0.14910    0.19440    0.31650    1.000
    O56      O        0.09562    0.90930    0.09829    1.000
    C129     C        0.21840    0.83350    0.38140    1.000
    C130     C        0.47610    0.15270    0.52100    1.000
    C131     C        0.42010    0.17500    0.47700    1.000
    H57      H        0.42230    0.23490    0.44890    1.000
    N7       N        0.27680    0.05490    0.38923    1.000
    C132     C        0.29980    0.13630    0.42840    1.000
    C133     C        0.13440    0.97560    0.13080    1.000
    C134     C        0.35910    0.01860    0.51390    1.000
    C135     C        0.20350    0.87610    0.31630    1.000
    C136     C        0.41630    0.99560    0.55700    1.000
    H58      H        0.41580    0.93250    0.58330    1.000
    C137     C        0.54030    0.22040    0.52270    1.000
    C138     C        0.20110    0.98950    0.30120    1.000
    C139     C        0.22250    0.07860    0.34740    1.000
    C140     C        0.18010    0.02030    0.24020    1.000
    H59      H        0.17940    0.09720    0.22910    1.000
    C141     C        0.47360    0.06460    0.56160    1.000
    H60      H        0.51110    0.05120    0.59240    1.000
    C142     C        0.18720    0.79510    0.27070    1.000
    H61      H        0.19200    0.71790    0.28070    1.000
    C143     C        0.29670    0.95050    0.51700    1.000
    C144     C        0.36050    0.10910    0.47420    1.000
    C145     C        0.21280    0.26440    0.38650    1.000
    H62      H        0.19070    0.33510    0.38620    1.000
    C146     C        0.16020    0.93970    0.19550    1.000
    C147     C        0.27000    0.24240    0.42810    1.000
    H63      H        0.28880    0.29860    0.45590    1.000
    Eu8      Eu       0.83155    0.17011    0.47432    1.000
    O57      O        0.80013    0.34390    0.51561    1.000
    O58      O        0.67794    0.36420    0.41845    1.000
    O59      O        0.74169    0.49930    0.52346    1.000
    O60      O        0.76671    0.26690    0.39176    1.000
    O61      O        0.05136    0.77870    0.47731    1.000
    C148     C        0.66430    0.32680    0.21110    1.000
    H64      H        0.65140    0.27140    0.18080    1.000
    O62      O        0.65150    0.57120    0.11433    1.000
    O63      O        0.08393    0.71510    0.56972    1.000
    C149     C        0.68830    0.68160    0.34550    1.000
    H65      H        0.64910    0.69440    0.31650    1.000
    O64      O        0.59562    0.40930    0.09829    1.000
    C150     C        0.71840    0.33350    0.38140    1.000
    C151     C        0.97610    0.65270    0.52100    1.000
    C152     C        0.92010    0.67500    0.47700    1.000
    H66      H        0.92230    0.73490    0.44890    1.000
    N8       N        0.77680    0.55490    0.38923    1.000
    C153     C        0.79980    0.63630    0.42840    1.000
    C154     C        0.63440    0.47560    0.13080    1.000
    C155     C        0.85910    0.51860    0.51390    1.000
    C156     C        0.70350    0.37610    0.31630    1.000
    C157     C        0.91630    0.49560    0.55700    1.000
    H67      H        0.91580    0.43250    0.58330    1.000
    C158     C        0.04030    0.72040    0.52270    1.000
    C159     C        0.70110    0.48950    0.30120    1.000
    C160     C        0.72250    0.57860    0.34740    1.000
    C161     C        0.68010    0.52030    0.24020    1.000
    H68      H        0.67940    0.59720    0.22910    1.000
    C162     C        0.97360    0.56460    0.56160    1.000
    H69      H        0.01110    0.55120    0.59240    1.000
    C163     C        0.68720    0.29510    0.27070    1.000
    H70      H        0.69200    0.21790    0.28070    1.000
    C164     C        0.79670    0.45050    0.51700    1.000
    C165     C        0.86050    0.60910    0.47420    1.000
    C166     C        0.71280    0.76440    0.38650    1.000
    H71      H        0.69070    0.83510    0.38620    1.000
    C167     C        0.66020    0.43970    0.19550    1.000
    C168     C        0.77000    0.74240    0.42810    1.000
    H72      H        0.78880    0.79860    0.45590    1.000
