# CIF file generated by openbabel 3.1.0, see https://openbabel.org
data_I
_chemical_name_common 'ja500618z_si_005_clean'
_cell_length_a 8.5389
_cell_length_b 9.0517
_cell_length_c 11.9989
_cell_angle_alpha 90
_cell_angle_beta 90
_cell_angle_gamma 90
_space_group_name_H-M_alt 'P 1'
_space_group_name_Hall 'P 1'
loop_
    _symmetry_equiv_pos_as_xyz
    x,y,z
loop_
    _atom_site_label
    _atom_site_type_symbol
    _atom_site_fract_x
    _atom_site_fract_y
    _atom_site_fract_z
    _atom_site_occupancy
    Mn1      Mn       0.24973    0.25000    0.75000    1.000
    Mn2      Mn       0.25027    0.25000    0.25000    1.000
    Mn3      Mn       0.74973    0.75000    0.75000    1.000
    Mn4      Mn       0.75027    0.75000    0.25000    1.000
    H1       H        0.41860    0.93560    0.73180    1.000
    H2       H        0.58140    0.43560    0.23180    1.000
    H3       H        0.25000    0.29310    0.50000    1.000
    H4       H        0.91860    0.43560    0.76820    1.000
    H5       H        0.41860    0.56440    0.76820    1.000
    H6       H        0.75000    0.70690    0.50000    1.000
    H7       H        0.75000    0.79310    0.00000    1.000
    H8       H        0.25000    0.20690    0.00000    1.000
    H9       H        0.08140    0.93560    0.26820    1.000
    H10      H        0.58140    0.06440    0.26820    1.000
    H11      H        0.91860    0.06440    0.73180    1.000
    H12      H        0.08140    0.56440    0.23180    1.000
    C1       C        0.98185    0.48462    0.71704    1.000
    C2       C        0.48185    0.51538    0.71704    1.000
    C3       C        0.51815    0.01538    0.21704    1.000
    C4       C        0.51815    0.48462    0.28296    1.000
    C5       C        0.75000    0.69030    0.00000    1.000
    C6       C        0.01815    0.51538    0.28296    1.000
    C7       C        0.01815    0.98462    0.21704    1.000
    C8       C        0.48185    0.98462    0.78296    1.000
    C9       C        0.25000    0.19030    0.50000    1.000
    C10      C        0.98185    0.01538    0.78296    1.000
    C11      C        0.75000    0.80970    0.50000    1.000
    C12      C        0.25000    0.30970    0.00000    1.000
    O1       O        0.59674    0.91622    0.81949    1.000
    O2       O        0.40326    0.08378    0.18051    1.000
    O3       O        0.74494    0.87033    0.59234    1.000
    O4       O        0.55627    0.88812    0.19164    1.000
    O5       O        0.09674    0.41622    0.68051    1.000
    O6       O        0.75506    0.87033    0.40766    1.000
    O7       O        0.44373    0.38812    0.69164    1.000
    O8       O        0.25506    0.37033    0.09234    1.000
    O9       O        0.74494    0.62967    0.90766    1.000
    O10      O        0.24494    0.12967    0.59234    1.000
    O11      O        0.09674    0.08378    0.81949    1.000
    O12      O        0.05627    0.11188    0.19164    1.000
    O13      O        0.25506    0.12967    0.40766    1.000
    O14      O        0.90326    0.91622    0.18051    1.000
    O15      O        0.40326    0.41622    0.31949    1.000
    O16      O        0.94373    0.88812    0.80836    1.000
    O17      O        0.44373    0.11188    0.80836    1.000
    O18      O        0.75506    0.62967    0.09234    1.000
    O19      O        0.24494    0.37033    0.90766    1.000
    O20      O        0.05627    0.38812    0.30836    1.000
    O21      O        0.55627    0.61188    0.30836    1.000
    O22      O        0.94373    0.61188    0.69164    1.000
    O23      O        0.59674    0.58378    0.68051    1.000
    O24      O        0.90326    0.58378    0.31949    1.000
