# CIF file generated by openbabel 3.1.0, see https://openbabel.org
data_I
_chemical_name_common 'image0'
_cell_length_a 16.5478
_cell_length_b 16.5478
_cell_length_c 12.4353
_cell_angle_alpha 90
_cell_angle_beta 90
_cell_angle_gamma 120
_space_group_name_H-M_alt 'P 1'
_space_group_name_Hall 'P 1'
loop_
    _symmetry_equiv_pos_as_xyz
    x,y,z
loop_
    _atom_site_label
    _atom_site_type_symbol
    _atom_site_fract_x
    _atom_site_fract_y
    _atom_site_fract_z
    _atom_site_occupancy
    O1       O        0.18800    0.59710    0.30560    1.000
    O2       O        0.24180    0.51320    0.38620    1.000
    O3       O        0.06970    0.18170    0.36630    1.000
    C1       C        0.08390    0.43460    0.34100    1.000
    C2       C        0.08320    0.35180    0.34370    1.000
    H1       H        0.13970    0.35070    0.35250    1.000
    C3       C        0.17880    0.52390    0.34510    1.000
    C4       C        0.33380    0.38470    0.47550    1.000
    H2       H        0.32870    0.38760    0.55380    1.000
    H3       H        0.30230    0.31930    0.45250    1.000
    H4       H        0.30450    0.41670    0.44080    1.000
    C5       C        0.43750    0.28430    0.47110    1.000
    H5       H        0.40630    0.24610    0.40780    1.000
    H6       H        0.39130    0.27130    0.52770    1.000
    H7       H        0.48430    0.26940    0.49740    1.000
    C6       C        0.48200    0.38090    0.44270    1.000
    C7       C        0.43420    0.43110    0.44450    1.000
    O4       O        0.40290    0.59090    0.63893    1.000
    O5       O        0.48680    0.72860    0.71953    1.000
    O6       O        0.81830    0.88800    0.69963    1.000
    C8       C        0.56540    0.64930    0.67433    1.000
    C9       C        0.64820    0.73140    0.67703    1.000
    H8       H        0.64930    0.78900    0.68583    1.000
    C10      C        0.47610    0.65490    0.67843    1.000
    C11      C        0.61530    0.94910    0.80883    1.000
    H9       H        0.61240    0.94110    0.88713    1.000
    H10      H        0.68070    0.98300    0.78583    1.000
    H11      H        0.58330    0.88780    0.77413    1.000
    C12      C        0.71570    0.15320    0.80443    1.000
    H12      H        0.75390    0.16020    0.74113    1.000
    H13      H        0.72870    0.12000    0.86103    1.000
    H14      H        0.73060    0.21490    0.83073    1.000
    C13      C        0.61910    0.10110    0.77603    1.000
    C14      C        0.56890    0.00310    0.77783    1.000
    O7       O        0.40910    0.81200    0.97227    1.000
    O8       O        0.27140    0.75820    0.05287    1.000
    O9       O        0.11200    0.93030    0.03297    1.000
    C15      C        0.35070    0.91610    0.00767    1.000
    C16      C        0.26860    0.91680    0.01037    1.000
    H15      H        0.21100    0.86030    0.01917    1.000
    C17      C        0.34510    0.82120    0.01177    1.000
    C18      C        0.05090    0.66620    0.14217    1.000
    H16      H        0.05890    0.67130    0.22047    1.000
    H17      H        0.01700    0.69770    0.11917    1.000
    H18      H        0.11220    0.69550    0.10747    1.000
    C19      C        0.84680    0.56250    0.13777    1.000
    H19      H        0.83980    0.59370    0.07447    1.000
    H20      H        0.88000    0.60870    0.19437    1.000
    H21      H        0.78510    0.51570    0.16407    1.000
    C20      C        0.89890    0.51800    0.10937    1.000
    C21      C        0.99690    0.56580    0.11117    1.000
    O10      O        0.81200    0.40290    0.80560    1.000
    O11      O        0.75820    0.48680    0.88620    1.000
    O12      O        0.93030    0.81830    0.86630    1.000
    C22      C        0.91610    0.56540    0.84100    1.000
    C23      C        0.91680    0.64820    0.84370    1.000
    H22      H        0.86030    0.64930    0.85250    1.000
    C24      C        0.82120    0.47610    0.84510    1.000
    C25      C        0.66620    0.61530    0.97550    1.000
    H23      H        0.67130    0.61240    0.05380    1.000
    H24      H        0.69770    0.68070    0.95250    1.000
    H25      H        0.69550    0.58330    0.94080    1.000
    C26      C        0.56250    0.71570    0.97110    1.000
    H26      H        0.59370    0.75390    0.90780    1.000
    H27      H        0.60870    0.72870    0.02770    1.000
    H28      H        0.51570    0.73060    0.99740    1.000
    C27      C        0.51800    0.61910    0.94270    1.000
    C28      C        0.56580    0.56890    0.94450    1.000
    O13      O        0.59710    0.40910    0.13893    1.000
    O14      O        0.51320    0.27140    0.21953    1.000
    O15      O        0.18170    0.11200    0.19963    1.000
    C29      C        0.43460    0.35070    0.17433    1.000
    C30      C        0.35180    0.26860    0.17703    1.000
    H29      H        0.35070    0.21100    0.18583    1.000
    C31      C        0.52390    0.34510    0.17843    1.000
    C32      C        0.38470    0.05090    0.30883    1.000
    H30      H        0.38760    0.05890    0.38713    1.000
    H31      H        0.31930    0.01700    0.28583    1.000
    H32      H        0.41670    0.11220    0.27413    1.000
    C33      C        0.28430    0.84680    0.30443    1.000
    H33      H        0.24610    0.83980    0.24113    1.000
    H34      H        0.27130    0.88000    0.36103    1.000
    H35      H        0.26940    0.78510    0.33073    1.000
    C34      C        0.38090    0.89890    0.27603    1.000
    C35      C        0.43110    0.99690    0.27783    1.000
    O16      O        0.59090    0.18800    0.47227    1.000
    O17      O        0.72860    0.24180    0.55287    1.000
    O18      O        0.88800    0.06970    0.53297    1.000
    C36      C        0.64930    0.08390    0.50767    1.000
    C37      C        0.73140    0.08320    0.51037    1.000
    H36      H        0.78900    0.13970    0.51917    1.000
    C38      C        0.65490    0.17880    0.51177    1.000
    C39      C        0.94910    0.33380    0.64217    1.000
    H37      H        0.94110    0.32870    0.72047    1.000
    H38      H        0.98300    0.30230    0.61917    1.000
    H39      H        0.88780    0.30450    0.60747    1.000
    C40      C        0.15320    0.43750    0.63777    1.000
    H40      H        0.16020    0.40630    0.57447    1.000
    H41      H        0.12000    0.39130    0.69437    1.000
    H42      H        0.21490    0.48430    0.66407    1.000
    C41      C        0.10110    0.48200    0.60937    1.000
    C42      C        0.00310    0.43420    0.61117    1.000
    O19      O        0.59710    0.18800    0.02773    1.000
    O20      O        0.51320    0.24180    0.94713    1.000
    O21      O        0.18170    0.06970    0.96703    1.000
    C43      C        0.43460    0.08390    0.99233    1.000
    C44      C        0.35180    0.08320    0.98963    1.000
    H43      H        0.35070    0.13970    0.98083    1.000
    C45      C        0.52390    0.17880    0.98823    1.000
    C46      C        0.38470    0.33380    0.85783    1.000
    H44      H        0.38760    0.32870    0.77953    1.000
    H45      H        0.31930    0.30230    0.88083    1.000
    H46      H        0.41670    0.30450    0.89253    1.000
    C47      C        0.28430    0.43750    0.86223    1.000
    H47      H        0.24610    0.40630    0.92553    1.000
    H48      H        0.27130    0.39130    0.80563    1.000
    H49      H        0.26940    0.48430    0.83593    1.000
    C48      C        0.38090    0.48200    0.89063    1.000
    C49      C        0.43110    0.43420    0.88883    1.000
    O22      O        0.59090    0.40290    0.69440    1.000
    O23      O        0.72860    0.48680    0.61380    1.000
    O24      O        0.88800    0.81830    0.63370    1.000
    C50      C        0.64930    0.56540    0.65900    1.000
    C51      C        0.73140    0.64820    0.65630    1.000
    H50      H        0.78900    0.64930    0.64750    1.000
    C52      C        0.65490    0.47610    0.65490    1.000
    C53      C        0.94910    0.61530    0.52450    1.000
    H51      H        0.94110    0.61240    0.44620    1.000
    H52      H        0.98300    0.68070    0.54750    1.000
    H53      H        0.88780    0.58330    0.55920    1.000
    C54      C        0.15320    0.71570    0.52890    1.000
    H54      H        0.16020    0.75390    0.59220    1.000
    H55      H        0.12000    0.72870    0.47230    1.000
    H56      H        0.21490    0.73060    0.50260    1.000
    C55      C        0.10110    0.61910    0.55730    1.000
    C56      C        0.00310    0.56890    0.55550    1.000
    O25      O        0.81200    0.40910    0.36107    1.000
    O26      O        0.75820    0.27140    0.28047    1.000
    O27      O        0.93030    0.11200    0.30037    1.000
    C57      C        0.91610    0.35070    0.32567    1.000
    C58      C        0.91680    0.26860    0.32297    1.000
    H57      H        0.86030    0.21100    0.31417    1.000
    C59      C        0.82120    0.34510    0.32157    1.000
    C60      C        0.66620    0.05090    0.19117    1.000
    H58      H        0.67130    0.05890    0.11287    1.000
    H59      H        0.69770    0.01700    0.21417    1.000
    H60      H        0.69550    0.11220    0.22587    1.000
    C61      C        0.56250    0.84680    0.19557    1.000
    H61      H        0.59370    0.83980    0.25887    1.000
    H62      H        0.60870    0.88000    0.13897    1.000
    H63      H        0.51570    0.78510    0.16927    1.000
    C62      C        0.51800    0.89890    0.22397    1.000
    C63      C        0.56580    0.99690    0.22217    1.000
    O28      O        0.40290    0.81200    0.52773    1.000
    O29      O        0.48680    0.75820    0.44713    1.000
    O30      O        0.81830    0.93030    0.46703    1.000
    C64      C        0.56540    0.91610    0.49233    1.000
    C65      C        0.64820    0.91680    0.48963    1.000
    H64      H        0.64930    0.86030    0.48083    1.000
    C66      C        0.47610    0.82120    0.48823    1.000
    C67      C        0.61530    0.66620    0.35783    1.000
    H65      H        0.61240    0.67130    0.27953    1.000
    H66      H        0.68070    0.69770    0.38083    1.000
    H67      H        0.58330    0.69550    0.39253    1.000
    C68      C        0.71570    0.56250    0.36223    1.000
    H68      H        0.75390    0.59370    0.42553    1.000
    H69      H        0.72870    0.60870    0.30563    1.000
    H70      H        0.73060    0.51570    0.33593    1.000
    C69      C        0.61910    0.51800    0.39063    1.000
    C70      C        0.56890    0.56580    0.38883    1.000
    O31      O        0.40910    0.59710    0.19440    1.000
    O32      O        0.27140    0.51320    0.11380    1.000
    O33      O        0.11200    0.18170    0.13370    1.000
    C71      C        0.35070    0.43460    0.15900    1.000
    C72      C        0.26860    0.35180    0.15630    1.000
    H71      H        0.21100    0.35070    0.14750    1.000
    C73      C        0.34510    0.52390    0.15490    1.000
    C74      C        0.05090    0.38470    0.02450    1.000
    H72      H        0.05890    0.38760    0.94620    1.000
    H73      H        0.01700    0.31930    0.04750    1.000
    H74      H        0.11220    0.41670    0.05920    1.000
    C75      C        0.84680    0.28430    0.02890    1.000
    H75      H        0.83980    0.24610    0.09220    1.000
    H76      H        0.88000    0.27130    0.97230    1.000
    H77      H        0.78510    0.26940    0.00260    1.000
    C76      C        0.89890    0.38090    0.05730    1.000
    C77      C        0.99690    0.43110    0.05550    1.000
    O34      O        0.18800    0.59090    0.86107    1.000
    O35      O        0.24180    0.72860    0.78047    1.000
    O36      O        0.06970    0.88800    0.80037    1.000
    C78      C        0.08390    0.64930    0.82567    1.000
    C79      C        0.08320    0.73140    0.82297    1.000
    H78      H        0.13970    0.78900    0.81417    1.000
    C80      C        0.17880    0.65490    0.82157    1.000
    C81      C        0.33380    0.94910    0.69117    1.000
    H79      H        0.32870    0.94110    0.61287    1.000
    H80      H        0.30230    0.98300    0.71417    1.000
    H81      H        0.30450    0.88780    0.72587    1.000
    C82      C        0.43750    0.15320    0.69557    1.000
    H82      H        0.40630    0.16020    0.75887    1.000
    H83      H        0.39130    0.12000    0.63897    1.000
    H84      H        0.48430    0.21490    0.66927    1.000
    C83      C        0.48200    0.10110    0.72397    1.000
    C84      C        0.43420    0.00310    0.72217    1.000
    Ag1      Ag       0.65222    0.34778    0.41667    1.000
    Ag2      Ag       0.39649    0.60351    0.41667    1.000
    N1       N        0.57400    0.42600    0.41667    1.000
    N2       N        0.47840    0.52160    0.41667    1.000
    Ag3      Ag       0.65222    0.30444    0.75000    1.000
    Ag4      Ag       0.39649    0.79298    0.75000    1.000
    N3       N        0.57400    0.14800    0.75000    1.000
    N4       N        0.47840    0.95680    0.75000    1.000
    Ag5      Ag       0.69556    0.34778    0.08333    1.000
    Ag6      Ag       0.20702    0.60351    0.08333    1.000
    N5       N        0.85200    0.42600    0.08333    1.000
    N6       N        0.04320    0.52160    0.08333    1.000
    Ag7      Ag       0.34778    0.65222    0.91667    1.000
    Ag8      Ag       0.60351    0.39649    0.91667    1.000
    N7       N        0.42600    0.57400    0.91667    1.000
    N8       N        0.52160    0.47840    0.91667    1.000
    Ag9      Ag       0.34778    0.69556    0.25000    1.000
    Ag10     Ag       0.60351    0.20702    0.25000    1.000
    N9       N        0.42600    0.85200    0.25000    1.000
    N10      N        0.52160    0.04320    0.25000    1.000
    Ag11     Ag       0.30444    0.65222    0.58333    1.000
    Ag12     Ag       0.79298    0.39649    0.58333    1.000
    N11      N        0.14800    0.57400    0.58333    1.000
    N12      N        0.95680    0.47840    0.58333    1.000
    N13      N        0.00000    0.18210    0.33333    1.000
    C85      C        0.00000    0.43500    0.33333    1.000
    H85      H        0.00000    0.49240    0.33333    1.000
    C86      C        0.00000    0.27040    0.33333    1.000
    N14      N        0.81790    0.81790    0.66667    1.000
    C87      C        0.56500    0.56500    0.66667    1.000
    H86      H        0.50760    0.50760    0.66667    1.000
    C88      C        0.72960    0.72960    0.66667    1.000
    N15      N        0.18210    0.00000    0.00000    1.000
    C89      C        0.43500    0.00000    0.00000    1.000
    H87      H        0.49240    0.00000    0.00000    1.000
    C90      C        0.27040    0.00000    0.00000    1.000
    N16      N        0.00000    0.81790    0.83333    1.000
    C91      C        0.00000    0.56500    0.83333    1.000
    H88      H        0.00000    0.50760    0.83333    1.000
    C92      C        0.00000    0.72960    0.83333    1.000
    N17      N        0.18210    0.18210    0.16667    1.000
    C93      C        0.43500    0.43500    0.16667    1.000
    H89      H        0.49240    0.49240    0.16667    1.000
    C94      C        0.27040    0.27040    0.16667    1.000
    N18      N        0.81790    0.00000    0.50000    1.000
    C95      C        0.56500    0.00000    0.50000    1.000
    H90      H        0.50760    0.00000    0.50000    1.000
    C96      C        0.72960    0.00000    0.50000    1.000
