# CIF file generated by openbabel 3.1.0, see https://openbabel.org
data_I
_chemical_name_common 'image0'
_cell_length_a 14.3929
_cell_length_b 17.8516
_cell_length_c 26.7111
_cell_angle_alpha 90
_cell_angle_beta 90
_cell_angle_gamma 90
_space_group_name_H-M_alt 'P 1'
_space_group_name_Hall 'P 1'
loop_
    _symmetry_equiv_pos_as_xyz
    x,y,z
loop_
    _atom_site_label
    _atom_site_type_symbol
    _atom_site_fract_x
    _atom_site_fract_y
    _atom_site_fract_z
    _atom_site_occupancy
    Zn1      Zn       0.56416    0.47132    0.70404    1.000
    Zn2      Zn       0.75417    0.53592    0.34199    1.000
    Zn3      Zn       0.86657    0.45782    0.44410    1.000
    O1       O        0.54260    0.49660    0.63409    1.000
    O2       O        0.49120    0.38450    0.61425    1.000
    O3       O        0.66560    0.49590    0.39668    1.000
    O4       O        0.80420    0.43680    0.32442    1.000
    O5       O        0.88220    0.38760    0.38887    1.000
    O6       O        0.74120    0.47530    0.46711    1.000
    O7       O        0.91930    0.40130    0.49837    1.000
    O8       O        0.05780    0.42000    0.46580    1.000
    O9       O        0.08270    0.44710    0.57753    1.000
    O10      O        0.20080    0.38480    0.61193    1.000
    O11      O        0.94630    0.43349    0.24126    1.000
    O12      O        0.81340    0.40380    0.20426    1.000
    O13      O        0.48060    0.39065    0.73022    1.000
    O14      O        0.35560    0.44775    0.70171    1.000
    O15      O        0.16050    0.42250    0.71520    1.000
    O16      O        0.17430    0.40210    0.79566    1.000
    C1       C        0.50950    0.45070    0.60410    1.000
    C2       C        0.50130    0.47720    0.55040    1.000
    C3       C        0.57930    0.47490    0.52131    1.000
    H1       H        0.63460    0.45910    0.53590    1.000
    C4       C        0.58040    0.49500    0.47105    1.000
    C5       C        0.66900    0.48800    0.44238    1.000
    C6       C        0.85100    0.38740    0.34508    1.000
    C7       C        0.00530    0.38710    0.49390    1.000
    C8       C        0.03750    0.31770    0.52140    1.000
    C9       C        0.09610    0.31750    0.56182    1.000
    C10      C        0.13020    0.38840    0.58530    1.000
    C11      C        0.86870    0.31800    0.31526    1.000
    C12      C        0.87470    0.31830    0.26298    1.000
    C13      C        0.87630    0.39070    0.23377    1.000
    C14      C        0.39620    0.39010    0.71842    1.000
    C15      C        0.34340    0.31840    0.72577    1.000
    C16      C        0.25190    0.31780    0.74116    1.000
    C17      C        0.19310    0.38690    0.75098    1.000
    Zn4      Zn       0.93584    0.52868    0.20404    1.000
    Zn5      Zn       0.74583    0.46408    0.84199    1.000
    Zn6      Zn       0.63343    0.54218    0.94410    1.000
    O17      O        0.95740    0.50340    0.13409    1.000
    O18      O        0.00880    0.61550    0.11425    1.000
    O19      O        0.83440    0.50410    0.89668    1.000
    O20      O        0.69580    0.56320    0.82442    1.000
    O21      O        0.61780    0.61240    0.88887    1.000
    O22      O        0.75880    0.52470    0.96711    1.000
    O23      O        0.58070    0.59870    0.99837    1.000
    O24      O        0.44220    0.58000    0.96580    1.000
    O25      O        0.41730    0.55290    0.07753    1.000
    O26      O        0.29920    0.61520    0.11193    1.000
    O27      O        0.55370    0.56651    0.74126    1.000
    O28      O        0.68660    0.59620    0.70426    1.000
    O29      O        0.01940    0.60935    0.23022    1.000
    O30      O        0.14440    0.55225    0.20171    1.000
    O31      O        0.33950    0.57750    0.21520    1.000
    O32      O        0.32570    0.59790    0.29566    1.000
    C18      C        0.99050    0.54930    0.10410    1.000
    C19      C        0.99870    0.52280    0.05040    1.000
    C20      C        0.92070    0.52510    0.02131    1.000
    H2       H        0.86540    0.54090    0.03590    1.000
    C21      C        0.91960    0.50500    0.97105    1.000
    C22      C        0.83100    0.51200    0.94238    1.000
    C23      C        0.64900    0.61260    0.84508    1.000
    C24      C        0.49470    0.61290    0.99390    1.000
    C25      C        0.46250    0.68230    0.02140    1.000
    C26      C        0.40390    0.68250    0.06182    1.000
    C27      C        0.36980    0.61160    0.08530    1.000
    C28      C        0.63130    0.68200    0.81526    1.000
    C29      C        0.62530    0.68170    0.76298    1.000
    C30      C        0.62370    0.60930    0.73377    1.000
    C31      C        0.10380    0.60990    0.21842    1.000
    C32      C        0.15660    0.68160    0.22577    1.000
    C33      C        0.24810    0.68220    0.24116    1.000
    C34      C        0.30690    0.61310    0.25098    1.000
    Zn7      Zn       0.43584    0.97132    0.29596    1.000
    Zn8      Zn       0.24583    0.03592    0.65801    1.000
    Zn9      Zn       0.13343    0.95782    0.55590    1.000
    O33      O        0.45740    0.99660    0.36591    1.000
    O34      O        0.50880    0.88450    0.38575    1.000
    O35      O        0.33440    0.99590    0.60332    1.000
    O36      O        0.19580    0.93680    0.67558    1.000
    O37      O        0.11780    0.88760    0.61113    1.000
    O38      O        0.25880    0.97530    0.53289    1.000
    O39      O        0.08070    0.90130    0.50163    1.000
    O40      O        0.94220    0.92000    0.53420    1.000
    O41      O        0.91730    0.94710    0.42247    1.000
    O42      O        0.79920    0.88480    0.38807    1.000
    O43      O        0.05370    0.93349    0.75874    1.000
    O44      O        0.18660    0.90380    0.79574    1.000
    O45      O        0.51940    0.89065    0.26978    1.000
    O46      O        0.64440    0.94775    0.29829    1.000
    O47      O        0.83950    0.92250    0.28480    1.000
    O48      O        0.82570    0.90210    0.20434    1.000
    C35      C        0.49050    0.95070    0.39590    1.000
    C36      C        0.49870    0.97720    0.44960    1.000
    C37      C        0.42070    0.97490    0.47869    1.000
    H3       H        0.36540    0.95910    0.46410    1.000
    C38      C        0.41960    0.99500    0.52895    1.000
    C39      C        0.33100    0.98800    0.55762    1.000
    C40      C        0.14900    0.88740    0.65492    1.000
    C41      C        0.99470    0.88710    0.50610    1.000
    C42      C        0.96250    0.81770    0.47860    1.000
    C43      C        0.90390    0.81750    0.43818    1.000
    C44      C        0.86980    0.88840    0.41470    1.000
    C45      C        0.13130    0.81800    0.68474    1.000
    C46      C        0.12530    0.81830    0.73702    1.000
    C47      C        0.12370    0.89070    0.76623    1.000
    C48      C        0.60380    0.89010    0.28158    1.000
    C49      C        0.65660    0.81840    0.27423    1.000
    C50      C        0.74810    0.81780    0.25884    1.000
    C51      C        0.80690    0.88690    0.24902    1.000
    Zn10     Zn       0.06416    0.02868    0.79596    1.000
    Zn11     Zn       0.25417    0.96408    0.15801    1.000
    Zn12     Zn       0.36657    0.04218    0.05590    1.000
    O49      O        0.04260    0.00340    0.86591    1.000
    O50      O        0.99120    0.11550    0.88575    1.000
    O51      O        0.16560    0.00410    0.10332    1.000
    O52      O        0.30420    0.06320    0.17558    1.000
    O53      O        0.38220    0.11240    0.11113    1.000
    O54      O        0.24120    0.02470    0.03289    1.000
    O55      O        0.41930    0.09870    0.00163    1.000
    O56      O        0.55780    0.08000    0.03420    1.000
    O57      O        0.58270    0.05290    0.92247    1.000
    O58      O        0.70080    0.11520    0.88807    1.000
    O59      O        0.44630    0.06651    0.25874    1.000
    O60      O        0.31340    0.09620    0.29574    1.000
    O61      O        0.98060    0.10935    0.76978    1.000
    O62      O        0.85560    0.05225    0.79829    1.000
    O63      O        0.66050    0.07750    0.78480    1.000
    O64      O        0.67430    0.09790    0.70434    1.000
    C52      C        0.00950    0.04930    0.89590    1.000
    C53      C        0.00130    0.02280    0.94960    1.000
    C54      C        0.07930    0.02510    0.97869    1.000
    H4       H        0.13460    0.04090    0.96410    1.000
    C55      C        0.08040    0.00500    0.02895    1.000
    C56      C        0.16900    0.01200    0.05762    1.000
    C57      C        0.35100    0.11260    0.15492    1.000
    C58      C        0.50530    0.11290    0.00610    1.000
    C59      C        0.53750    0.18230    0.97860    1.000
    C60      C        0.59610    0.18250    0.93818    1.000
    C61      C        0.63020    0.11160    0.91470    1.000
    C62      C        0.36870    0.18200    0.18474    1.000
    C63      C        0.37470    0.18170    0.23702    1.000
    C64      C        0.37630    0.10930    0.26623    1.000
    C65      C        0.89620    0.10990    0.78158    1.000
    C66      C        0.84340    0.18160    0.77423    1.000
    C67      C        0.75190    0.18220    0.75884    1.000
    C68      C        0.69310    0.11310    0.74902    1.000
    Zn13     Zn       0.43584    0.52868    0.29596    1.000
    Zn14     Zn       0.24583    0.46408    0.65801    1.000
    Zn15     Zn       0.13343    0.54218    0.55590    1.000
    O65      O        0.45740    0.50340    0.36591    1.000
    O66      O        0.50880    0.61550    0.38575    1.000
    O67      O        0.33440    0.50410    0.60332    1.000
    O68      O        0.19580    0.56320    0.67558    1.000
    O69      O        0.11780    0.61240    0.61113    1.000
    O70      O        0.25880    0.52470    0.53289    1.000
    O71      O        0.08070    0.59870    0.50163    1.000
    O72      O        0.94220    0.58000    0.53420    1.000
    O73      O        0.91730    0.55290    0.42247    1.000
    O74      O        0.79920    0.61520    0.38807    1.000
    O75      O        0.05370    0.56651    0.75874    1.000
    O76      O        0.18660    0.59620    0.79574    1.000
    O77      O        0.51940    0.60935    0.26978    1.000
    O78      O        0.64440    0.55225    0.29829    1.000
    O79      O        0.83950    0.57750    0.28480    1.000
    O80      O        0.82570    0.59790    0.20434    1.000
    C69      C        0.49050    0.54930    0.39590    1.000
    C70      C        0.49870    0.52280    0.44960    1.000
    C71      C        0.42070    0.52510    0.47869    1.000
    H5       H        0.36540    0.54090    0.46410    1.000
    C72      C        0.41960    0.50500    0.52895    1.000
    C73      C        0.33100    0.51200    0.55762    1.000
    C74      C        0.14900    0.61260    0.65492    1.000
    C75      C        0.99470    0.61290    0.50610    1.000
    C76      C        0.96250    0.68230    0.47860    1.000
    C77      C        0.90390    0.68250    0.43818    1.000
    C78      C        0.86980    0.61160    0.41470    1.000
    C79      C        0.13130    0.68200    0.68474    1.000
    C80      C        0.12530    0.68170    0.73702    1.000
    C81      C        0.12370    0.60930    0.76623    1.000
    C82      C        0.60380    0.60990    0.28158    1.000
    C83      C        0.65660    0.68160    0.27423    1.000
    C84      C        0.74810    0.68220    0.25884    1.000
    C85      C        0.80690    0.61310    0.24902    1.000
    Zn16     Zn       0.06416    0.47132    0.79596    1.000
    Zn17     Zn       0.25417    0.53592    0.15801    1.000
    Zn18     Zn       0.36657    0.45782    0.05590    1.000
    O81      O        0.04260    0.49660    0.86591    1.000
    O82      O        0.99120    0.38450    0.88575    1.000
    O83      O        0.16560    0.49590    0.10332    1.000
    O84      O        0.30420    0.43680    0.17558    1.000
    O85      O        0.38220    0.38760    0.11113    1.000
    O86      O        0.24120    0.47530    0.03289    1.000
    O87      O        0.41930    0.40130    0.00163    1.000
    O88      O        0.55780    0.42000    0.03420    1.000
    O89      O        0.58270    0.44710    0.92247    1.000
    O90      O        0.70080    0.38480    0.88807    1.000
    O91      O        0.44630    0.43349    0.25874    1.000
    O92      O        0.31340    0.40380    0.29574    1.000
    O93      O        0.98060    0.39065    0.76978    1.000
    O94      O        0.85560    0.44775    0.79829    1.000
    O95      O        0.66050    0.42250    0.78480    1.000
    O96      O        0.67430    0.40210    0.70434    1.000
    C86      C        0.00950    0.45070    0.89590    1.000
    C87      C        0.00130    0.47720    0.94960    1.000
    C88      C        0.07930    0.47490    0.97869    1.000
    H6       H        0.13460    0.45910    0.96410    1.000
    C89      C        0.08040    0.49500    0.02895    1.000
    C90      C        0.16900    0.48800    0.05762    1.000
    C91      C        0.35100    0.38740    0.15492    1.000
    C92      C        0.50530    0.38710    0.00610    1.000
    C93      C        0.53750    0.31770    0.97860    1.000
    C94      C        0.59610    0.31750    0.93818    1.000
    C95      C        0.63020    0.38840    0.91470    1.000
    C96      C        0.36870    0.31800    0.18474    1.000
    C97      C        0.37470    0.31830    0.23702    1.000
    C98      C        0.37630    0.39070    0.26623    1.000
    C99      C        0.89620    0.39010    0.78158    1.000
    C100     C        0.84340    0.31840    0.77423    1.000
    C101     C        0.75190    0.31780    0.75884    1.000
    C102     C        0.69310    0.38690    0.74902    1.000
    Zn19     Zn       0.56416    0.02868    0.70404    1.000
    Zn20     Zn       0.75417    0.96408    0.34199    1.000
    Zn21     Zn       0.86657    0.04218    0.44410    1.000
    O97      O        0.54260    0.00340    0.63409    1.000
    O98      O        0.49120    0.11550    0.61425    1.000
    O99      O        0.66560    0.00410    0.39668    1.000
    O100     O        0.80420    0.06320    0.32442    1.000
    O101     O        0.88220    0.11240    0.38887    1.000
    O102     O        0.74120    0.02470    0.46711    1.000
    O103     O        0.91930    0.09870    0.49837    1.000
    O104     O        0.05780    0.08000    0.46580    1.000
    O105     O        0.08270    0.05290    0.57753    1.000
    O106     O        0.20080    0.11520    0.61193    1.000
    O107     O        0.94630    0.06651    0.24126    1.000
    O108     O        0.81340    0.09620    0.20426    1.000
    O109     O        0.48060    0.10935    0.73022    1.000
    O110     O        0.35560    0.05225    0.70171    1.000
    O111     O        0.16050    0.07750    0.71520    1.000
    O112     O        0.17430    0.09790    0.79566    1.000
    C103     C        0.50950    0.04930    0.60410    1.000
    C104     C        0.50130    0.02280    0.55040    1.000
    C105     C        0.57930    0.02510    0.52131    1.000
    H7       H        0.63460    0.04090    0.53590    1.000
    C106     C        0.58040    0.00500    0.47105    1.000
    C107     C        0.66900    0.01200    0.44238    1.000
    C108     C        0.85100    0.11260    0.34508    1.000
    C109     C        0.00530    0.11290    0.49390    1.000
    C110     C        0.03750    0.18230    0.52140    1.000
    C111     C        0.09610    0.18250    0.56182    1.000
    C112     C        0.13020    0.11160    0.58530    1.000
    C113     C        0.86870    0.18200    0.31526    1.000
    C114     C        0.87470    0.18170    0.26298    1.000
    C115     C        0.87630    0.10930    0.23377    1.000
    C116     C        0.39620    0.10990    0.71842    1.000
    C117     C        0.34340    0.18160    0.72577    1.000
    C118     C        0.25190    0.18220    0.74116    1.000
    C119     C        0.19310    0.11310    0.75098    1.000
    Zn22     Zn       0.93584    0.97132    0.20404    1.000
    Zn23     Zn       0.74583    0.03592    0.84199    1.000
    Zn24     Zn       0.63343    0.95782    0.94410    1.000
    O113     O        0.95740    0.99660    0.13409    1.000
    O114     O        0.00880    0.88450    0.11425    1.000
    O115     O        0.83440    0.99590    0.89668    1.000
    O116     O        0.69580    0.93680    0.82442    1.000
    O117     O        0.61780    0.88760    0.88887    1.000
    O118     O        0.75880    0.97530    0.96711    1.000
    O119     O        0.58070    0.90130    0.99837    1.000
    O120     O        0.44220    0.92000    0.96580    1.000
    O121     O        0.41730    0.94710    0.07753    1.000
    O122     O        0.29920    0.88480    0.11193    1.000
    O123     O        0.55370    0.93349    0.74126    1.000
    O124     O        0.68660    0.90380    0.70426    1.000
    O125     O        0.01940    0.89065    0.23022    1.000
    O126     O        0.14440    0.94775    0.20171    1.000
    O127     O        0.33950    0.92250    0.21520    1.000
    O128     O        0.32570    0.90210    0.29566    1.000
    C120     C        0.99050    0.95070    0.10410    1.000
    C121     C        0.99870    0.97720    0.05040    1.000
    C122     C        0.92070    0.97490    0.02131    1.000
    H8       H        0.86540    0.95910    0.03590    1.000
    C123     C        0.91960    0.99500    0.97105    1.000
    C124     C        0.83100    0.98800    0.94238    1.000
    C125     C        0.64900    0.88740    0.84508    1.000
    C126     C        0.49470    0.88710    0.99390    1.000
    C127     C        0.46250    0.81770    0.02140    1.000
    C128     C        0.40390    0.81750    0.06182    1.000
    C129     C        0.36980    0.88840    0.08530    1.000
    C130     C        0.63130    0.81800    0.81526    1.000
    C131     C        0.62530    0.81830    0.76298    1.000
    C132     C        0.62370    0.89070    0.73377    1.000
    C133     C        0.10380    0.89010    0.21842    1.000
    C134     C        0.15660    0.81840    0.22577    1.000
    C135     C        0.24810    0.81780    0.24116    1.000
    C136     C        0.30690    0.88690    0.25098    1.000
    C137     C        0.12550    0.25000    0.58210    1.000
    H9       H        0.16520    0.25000    0.60960    1.000
    C138     C        0.00870    0.25000    0.50110    1.000
    H10      H        0.96940    0.25000    0.47350    1.000
    C139     C        0.87950    0.25000    0.23740    1.000
    H11      H        0.88590    0.25000    0.20280    1.000
    C140     C        0.86690    0.25000    0.34020    1.000
    H12      H        0.86440    0.25000    0.37500    1.000
    C141     C        0.20700    0.25000    0.74990    1.000
    H13      H        0.14620    0.25000    0.76180    1.000
    C142     C        0.38980    0.25000    0.71970    1.000
    H14      H        0.45260    0.25000    0.71140    1.000
    C143     C        0.37450    0.75000    0.08210    1.000
    H15      H        0.33480    0.75000    0.10960    1.000
    C144     C        0.49130    0.75000    0.00110    1.000
    H16      H        0.53060    0.75000    0.97350    1.000
    C145     C        0.62050    0.75000    0.73740    1.000
    H17      H        0.61410    0.75000    0.70280    1.000
    C146     C        0.63310    0.75000    0.84020    1.000
    H18      H        0.63560    0.75000    0.87500    1.000
    C147     C        0.29300    0.75000    0.24990    1.000
    H19      H        0.35380    0.75000    0.26180    1.000
    C148     C        0.11020    0.75000    0.21970    1.000
    H20      H        0.04740    0.75000    0.21140    1.000
    C149     C        0.87450    0.75000    0.41790    1.000
    H21      H        0.83480    0.75000    0.39040    1.000
    C150     C        0.99130    0.75000    0.49890    1.000
    H22      H        0.03060    0.75000    0.52650    1.000
    C151     C        0.12050    0.75000    0.76260    1.000
    H23      H        0.11410    0.75000    0.79720    1.000
    C152     C        0.13310    0.75000    0.65980    1.000
    H24      H        0.13560    0.75000    0.62500    1.000
    C153     C        0.79300    0.75000    0.25010    1.000
    H25      H        0.85380    0.75000    0.23820    1.000
    C154     C        0.61020    0.75000    0.28030    1.000
    H26      H        0.54740    0.75000    0.28860    1.000
    C155     C        0.62550    0.25000    0.91790    1.000
    H27      H        0.66520    0.25000    0.89040    1.000
    C156     C        0.50870    0.25000    0.99890    1.000
    H28      H        0.46940    0.25000    0.02650    1.000
    C157     C        0.37950    0.25000    0.26260    1.000
    H29      H        0.38590    0.25000    0.29720    1.000
    C158     C        0.36690    0.25000    0.15980    1.000
    H30      H        0.36440    0.25000    0.12500    1.000
    C159     C        0.70700    0.25000    0.75010    1.000
    H31      H        0.64620    0.25000    0.73820    1.000
    C160     C        0.88980    0.25000    0.78030    1.000
    H32      H        0.95260    0.25000    0.78860    1.000
