# CIF file generated by openbabel 3.1.0, see https://openbabel.org
data_I
_chemical_name_common 'TIQGIK_clean'
_cell_length_a 10.0452
_cell_length_b 14.1601
_cell_length_c 10.2294
_cell_angle_alpha 92.258
_cell_angle_beta 90
_cell_angle_gamma 90
_space_group_name_H-M_alt 'P 1'
_space_group_name_Hall 'P 1'
loop_
    _symmetry_equiv_pos_as_xyz
    x,y,z
loop_
    _atom_site_label
    _atom_site_type_symbol
    _atom_site_fract_x
    _atom_site_fract_y
    _atom_site_fract_z
    _atom_site_occupancy
    Cu1      Cu       0.24883    0.28535    0.92562    1.000
    Cu2      Cu       0.23228    0.78851    0.93235    1.000
    Cu3      Cu       0.87659    0.77034    0.70064    1.000
    Cu4      Cu       0.40664    0.78172    0.65605    1.000
    Cu5      Cu       0.28111    0.66436    0.40769    1.000
    Cu6      Cu       0.26386    0.87617    0.44109    1.000
    Cu7      Cu       0.25734    0.28744    0.43793    1.000
    Cu8      Cu       0.75117    0.28535    0.42562    1.000
    Cu9      Cu       0.76772    0.78851    0.43235    1.000
    Cu10     Cu       0.12341    0.77034    0.20064    1.000
    Cu11     Cu       0.59336    0.78172    0.15605    1.000
    Cu12     Cu       0.71889    0.66436    0.90769    1.000
    Cu13     Cu       0.73614    0.87617    0.94109    1.000
    Cu14     Cu       0.74266    0.28744    0.93793    1.000
    H1       H        0.36480    0.49260    0.77720    1.000
    H2       H        0.17500    0.52110    0.60890    1.000
    H3       H        0.00530    0.45040    0.70710    1.000
    H4       H        0.05940    0.50710    0.96910    1.000
    H5       H        0.12460    0.09310    0.09310    1.000
    H6       H        0.31680    0.05320    0.25560    1.000
    H7       H        0.49720    0.10610    0.14840    1.000
    H8       H        0.42960    0.06670    0.89020    1.000
    H9       H        0.02300    0.83900    0.99500    1.000
    H10      H        0.92900    0.76800    0.93200    1.000
    H11      H        0.39500    0.87100    0.86900    1.000
    H12      H        0.63520    0.49260    0.27720    1.000
    H13      H        0.82500    0.52110    0.10890    1.000
    H14      H        0.99470    0.45040    0.20710    1.000
    H15      H        0.94060    0.50710    0.46910    1.000
    H16      H        0.87540    0.09310    0.59310    1.000
    H17      H        0.68320    0.05320    0.75560    1.000
    H18      H        0.50280    0.10610    0.64840    1.000
    H19      H        0.57040    0.06670    0.39020    1.000
    H20      H        0.97700    0.83900    0.49500    1.000
    H21      H        0.07100    0.76800    0.43200    1.000
    H22      H        0.60500    0.87100    0.36900    1.000
    C1       C        0.27500    0.46250    0.76810    1.000
    C2       C        0.17650    0.53160    0.70620    1.000
    C3       C        0.04410    0.50190    0.76490    1.000
    C4       C        0.08080    0.45970    0.89710    1.000
    C5       C        0.28440    0.37200    0.68340    1.000
    C6       C        0.21870    0.63240    0.74230    1.000
    C7       C        0.94270    0.58160    0.77840    1.000
    C8       C        0.00170    0.36920    0.91910    1.000
    C9       C        0.21840    0.11650    0.09750    1.000
    C10      C        0.30990    0.04210    0.15870    1.000
    C11      C        0.44560    0.06070    0.09060    1.000
    C12      C        0.41000    0.11070    0.96660    1.000
    C13      C        0.22570    0.21050    0.17750    1.000
    C14      C        0.25800    0.94300    0.12440    1.000
    C15      C        0.53000    0.97360    0.06670    1.000
    C16      C        0.49150    0.20080    0.95080    1.000
    C17      C        0.72500    0.46250    0.26810    1.000
    C18      C        0.82350    0.53160    0.20620    1.000
    C19      C        0.95590    0.50190    0.26490    1.000
    C20      C        0.91920    0.45970    0.39710    1.000
    C21      C        0.71560    0.37200    0.18340    1.000
    C22      C        0.78130    0.63240    0.24230    1.000
    C23      C        0.05730    0.58160    0.27840    1.000
    C24      C        0.99830    0.36920    0.41910    1.000
    C25      C        0.78160    0.11650    0.59750    1.000
    C26      C        0.69010    0.04210    0.65870    1.000
    C27      C        0.55440    0.06070    0.59060    1.000
    C28      C        0.59000    0.11070    0.46660    1.000
    C29      C        0.77430    0.21050    0.67750    1.000
    C30      C        0.74200    0.94300    0.62440    1.000
    C31      C        0.47000    0.97360    0.56670    1.000
    C32      C        0.50850    0.20080    0.45080    1.000
    Cl1      Cl       0.10757    0.96782    0.53000    1.000
    Cl2      Cl       0.62662    0.69091    0.65147    1.000
    Cl3      Cl       0.89243    0.96782    0.03000    1.000
    Cl4      Cl       0.37338    0.69091    0.15147    1.000
    O1       O        0.22210    0.44410    0.89480    1.000
    O2       O        0.24360    0.29560    0.72790    1.000
    O3       O        0.32620    0.38050    0.56870    1.000
    O4       O        0.27880    0.67480    0.65330    1.000
    O5       O        0.19710    0.66330    0.85590    1.000
    O6       O        0.95410    0.64470    0.69600    1.000
    O7       O        0.85430    0.57450    0.86380    1.000
    O8       O        0.87840    0.38010    0.91830    1.000
    O9       O        0.05970    0.29320    0.93980    1.000
    O10      O        0.06800    0.78390    0.02380    1.000
    O11      O        0.84560    0.76880    0.88680    1.000
    O12      O        0.26930    0.12890    0.96850    1.000
    O13      O        0.25790    0.28460    0.12280    1.000
    O14      O        0.20050    0.20360    0.29750    1.000
    O15      O        0.21100    0.89610    0.21540    1.000
    O16      O        0.26820    0.91600    0.00700    1.000
    O17      O        0.52930    0.91500    0.15660    1.000
    O18      O        0.59540    0.96690    0.96180    1.000
    O19      O        0.61400    0.19130    0.97260    1.000
    O20      O        0.43900    0.27490    0.91250    1.000
    O21      O        0.39380    0.80600    0.83920    1.000
    O22      O        0.39120    0.76870    0.46760    1.000
    O23      O        0.77790    0.44410    0.39480    1.000
    O24      O        0.75640    0.29560    0.22790    1.000
    O25      O        0.67380    0.38050    0.06870    1.000
    O26      O        0.72120    0.67480    0.15330    1.000
    O27      O        0.80290    0.66330    0.35590    1.000
    O28      O        0.04590    0.64470    0.19600    1.000
    O29      O        0.14570    0.57450    0.36380    1.000
    O30      O        0.12160    0.38010    0.41830    1.000
    O31      O        0.94030    0.29320    0.43980    1.000
    O32      O        0.93200    0.78390    0.52380    1.000
    O33      O        0.15440    0.76880    0.38680    1.000
    O34      O        0.73070    0.12890    0.46850    1.000
    O35      O        0.74210    0.28460    0.62280    1.000
    O36      O        0.79950    0.20360    0.79750    1.000
    O37      O        0.78900    0.89610    0.71540    1.000
    O38      O        0.73180    0.91600    0.50700    1.000
    O39      O        0.47070    0.91500    0.65660    1.000
    O40      O        0.40460    0.96690    0.46180    1.000
    O41      O        0.38600    0.19130    0.47260    1.000
    O42      O        0.56100    0.27490    0.41250    1.000
    O43      O        0.60620    0.80600    0.33920    1.000
    O44      O        0.60880    0.76870    0.96760    1.000
