# CIF file generated by openbabel 3.1.0, see https://openbabel.org
data_I
_chemical_name_common 'MATVIN_clean'
_cell_length_a 8.8737
_cell_length_b 8.8737
_cell_length_c 14.0404
_cell_angle_alpha 78.3882
_cell_angle_beta 78.3882
_cell_angle_gamma 81.4905
_space_group_name_H-M_alt 'P 1'
_space_group_name_Hall 'P 1'
loop_
    _symmetry_equiv_pos_as_xyz
    x,y,z
loop_
    _atom_site_label
    _atom_site_type_symbol
    _atom_site_fract_x
    _atom_site_fract_y
    _atom_site_fract_z
    _atom_site_occupancy
    Zn1      Zn       0.76154    0.76154    0.58264    1.000
    Zn2      Zn       0.73108    0.73108    0.79925    1.000
    H1       H        0.22140    0.73440    0.79320    1.000
    H2       H        0.26830    0.76810    0.58980    1.000
    H3       H        0.92550    0.58670    0.42460    1.000
    H4       H        0.92000    0.57440    0.26170    1.000
    H5       H        0.89910    0.56810    0.12260    1.000
    H6       H        0.88280    0.56800    0.96110    1.000
    H7       H        0.73440    0.22140    0.79320    1.000
    H8       H        0.76810    0.26830    0.58980    1.000
    H9       H        0.58670    0.92550    0.42460    1.000
    H10      H        0.57440    0.92000    0.26170    1.000
    H11      H        0.56810    0.89910    0.12260    1.000
    H12      H        0.56800    0.88280    0.96110    1.000
    C1       C        0.44960    0.75620    0.71640    1.000
    C2       C        0.28060    0.74640    0.72830    1.000
    C3       C        0.20940    0.75340    0.65470    1.000
    C4       C        0.04060    0.73980    0.66630    1.000
    C5       C        0.85330    0.65630    0.39110    1.000
    C6       C        0.84920    0.64700    0.29430    1.000
    C7       C        0.82430    0.63950    0.09230    1.000
    C8       C        0.81280    0.64120    0.99370    1.000
    C9       C        0.75620    0.44960    0.71640    1.000
    C10      C        0.74640    0.28060    0.72830    1.000
    C11      C        0.75340    0.20940    0.65470    1.000
    C12      C        0.73980    0.04060    0.66630    1.000
    C13      C        0.65630    0.85330    0.39110    1.000
    C14      C        0.64700    0.84920    0.29430    1.000
    C15      C        0.63950    0.82430    0.09230    1.000
    C16      C        0.64120    0.81280    0.99370    1.000
    C17      C        0.74300    0.74300    0.24600    1.000
    C18      C        0.73430    0.73430    0.14110    1.000
    N1       N        0.75940    0.75940    0.43880    1.000
    N2       N        0.72450    0.72450    0.94540    1.000
    O1       O        0.52790    0.77210    0.63220    1.000
    O2       O        0.50190    0.74430    0.79580    1.000
    O3       O        0.96460    0.72180    0.75260    1.000
    O4       O        0.99000    0.74700    0.58840    1.000
    O5       O        0.77210    0.52790    0.63220    1.000
    O6       O        0.74430    0.50190    0.79580    1.000
    O7       O        0.72180    0.96460    0.75260    1.000
    O8       O        0.74700    0.99000    0.58840    1.000
    Zn3      Zn       0.23846    0.23846    0.41736    1.000
    Zn4      Zn       0.26892    0.26892    0.20075    1.000
    H13      H        0.26560    0.77860    0.20680    1.000
    H14      H        0.23190    0.73170    0.41020    1.000
    H15      H        0.41330    0.07450    0.57540    1.000
    H16      H        0.42560    0.08000    0.73830    1.000
    H17      H        0.43190    0.10090    0.87740    1.000
    H18      H        0.43200    0.11720    0.03890    1.000
    H19      H        0.77860    0.26560    0.20680    1.000
    H20      H        0.73170    0.23190    0.41020    1.000
    H21      H        0.07450    0.41330    0.57540    1.000
    H22      H        0.08000    0.42560    0.73830    1.000
    H23      H        0.10090    0.43190    0.87740    1.000
    H24      H        0.11720    0.43200    0.03890    1.000
    C19      C        0.24380    0.55040    0.28360    1.000
    C20      C        0.25360    0.71940    0.27170    1.000
    C21      C        0.24660    0.79060    0.34530    1.000
    C22      C        0.26020    0.95940    0.33370    1.000
    C23      C        0.34370    0.14670    0.60890    1.000
    C24      C        0.35300    0.15080    0.70570    1.000
    C25      C        0.36050    0.17570    0.90770    1.000
    C26      C        0.35880    0.18720    0.00630    1.000
    C27      C        0.55040    0.24380    0.28360    1.000
    C28      C        0.71940    0.25360    0.27170    1.000
    C29      C        0.79060    0.24660    0.34530    1.000
    C30      C        0.95940    0.26020    0.33370    1.000
    C31      C        0.14670    0.34370    0.60890    1.000
    C32      C        0.15080    0.35300    0.70570    1.000
    C33      C        0.17570    0.36050    0.90770    1.000
    C34      C        0.18720    0.35880    0.00630    1.000
    C35      C        0.25700    0.25700    0.75400    1.000
    C36      C        0.26570    0.26570    0.85890    1.000
    N3       N        0.24060    0.24060    0.56120    1.000
    N4       N        0.27550    0.27550    0.05460    1.000
    O9       O        0.22790    0.47210    0.36780    1.000
    O10      O        0.25570    0.49810    0.20420    1.000
    O11      O        0.27820    0.03540    0.24740    1.000
    O12      O        0.25300    0.01000    0.41160    1.000
    O13      O        0.47210    0.22790    0.36780    1.000
    O14      O        0.49810    0.25570    0.20420    1.000
    O15      O        0.03540    0.27820    0.24740    1.000
    O16      O        0.01000    0.25300    0.41160    1.000
