# CIF file generated by openbabel 3.1.0, see https://openbabel.org
data_I
_chemical_name_common 'image0'
_cell_length_a 7.97
_cell_length_b 9.419
_cell_length_c 10.391
_cell_angle_alpha 95.79
_cell_angle_beta 112.084
_cell_angle_gamma 110.002
_space_group_name_H-M_alt 'P 1'
_space_group_name_Hall 'P 1'
loop_
    _symmetry_equiv_pos_as_xyz
    x,y,z
loop_
    _atom_site_label
    _atom_site_type_symbol
    _atom_site_fract_x
    _atom_site_fract_y
    _atom_site_fract_z
    _atom_site_occupancy
    Eu1      Eu       0.28165    0.05090    0.01101    1.000
    O1       O        0.92730    0.98280    0.86240    1.000
    O2       O        0.49720    0.04330    0.24200    1.000
    O3       O        0.75690    0.00710    0.23070    1.000
    O4       O        0.39160    0.31340    0.16900    1.000
    O5       O        0.25640    0.28110    0.93420    1.000
    O6       O        0.10460    0.76210    0.97240    1.000
    O7       O        0.39880    0.83250    0.97680    1.000
    N1       N        0.85950    0.99300    0.72500    1.000
    C1       C        0.80830    0.86820    0.62060    1.000
    H1       H        0.81580    0.77480    0.64350    1.000
    C2       C        0.74460    0.87730    0.47950    1.000
    H2       H        0.71430    0.79180    0.40540    1.000
    C3       C        0.72490    0.01080    0.44620    1.000
    C4       C        0.77300    0.13580    0.55790    1.000
    H3       H        0.75620    0.22740    0.53720    1.000
    C5       C        0.84430    0.12510    0.69710    1.000
    H4       H        0.88290    0.21130    0.77390    1.000
    C6       C        0.65300    0.02170    0.29240    1.000
    C7       C        0.32410    0.36350    0.06040    1.000
    C8       C        0.32770    0.52670    0.08380    1.000
    H5       H        0.46730    0.60550    0.13060    1.000
    H6       H        0.26650    0.53780    0.14920    1.000
    C9       C        0.21590    0.55850    0.94240    1.000
    H7       H        0.26710    0.53600    0.87310    1.000
    H8       H        0.07310    0.48760    0.90100    1.000
    C10      C        0.23900    0.72500    0.96420    1.000
    Eu2      Eu       0.71835    0.94910    0.98899    1.000
    O8       O        0.07270    0.01720    0.13760    1.000
    O9       O        0.50280    0.95670    0.75800    1.000
    O10      O        0.24310    0.99290    0.76930    1.000
    O11      O        0.60840    0.68660    0.83100    1.000
    O12      O        0.74360    0.71890    0.06580    1.000
    O13      O        0.89540    0.23790    0.02760    1.000
    O14      O        0.60120    0.16750    0.02320    1.000
    N2       N        0.14050    0.00700    0.27500    1.000
    C11      C        0.19170    0.13180    0.37940    1.000
    H9       H        0.18420    0.22520    0.35650    1.000
    C12      C        0.25540    0.12270    0.52050    1.000
    H10      H        0.28570    0.20820    0.59460    1.000
    C13      C        0.27510    0.98920    0.55380    1.000
    C14      C        0.22700    0.86420    0.44210    1.000
    H11      H        0.24380    0.77260    0.46280    1.000
    C15      C        0.15570    0.87490    0.30290    1.000
    H12      H        0.11710    0.78870    0.22610    1.000
    C16      C        0.34700    0.97830    0.70760    1.000
    C17      C        0.67590    0.63650    0.93960    1.000
    C18      C        0.67230    0.47330    0.91620    1.000
    H13      H        0.53270    0.39450    0.86940    1.000
    H14      H        0.73350    0.46220    0.85080    1.000
    C19      C        0.78410    0.44150    0.05760    1.000
    H15      H        0.73290    0.46400    0.12690    1.000
    H16      H        0.92690    0.51240    0.09900    1.000
    C20      C        0.76100    0.27500    0.03580    1.000
