# CIF file generated by openbabel 3.1.0, see https://openbabel.org
data_I
_chemical_name_common 'image0'
_cell_length_a 12.474
_cell_length_b 15.248
_cell_length_c 16.899
_cell_angle_alpha 90
_cell_angle_beta 90
_cell_angle_gamma 90
_space_group_name_H-M_alt 'P 1'
_space_group_name_Hall 'P 1'
loop_
    _symmetry_equiv_pos_as_xyz
    x,y,z
loop_
    _atom_site_label
    _atom_site_type_symbol
    _atom_site_fract_x
    _atom_site_fract_y
    _atom_site_fract_z
    _atom_site_occupancy
    O1       O        0.63210    0.95090    0.17710    1.000
    C1       C        0.54860    0.90920    0.15810    1.000
    O2       O        0.49610    0.91360    0.09520    1.000
    O3       O        0.33830    0.48650    0.50360    1.000
    O4       O        0.48420    0.60390    0.42580    1.000
    C2       C        0.41700    0.64050    0.38460    1.000
    O5       O        0.31940    0.62160    0.38470    1.000
    C3       C        0.45210    0.71210    0.32870    1.000
    C4       C        0.55550    0.75060    0.33260    1.000
    N1       N        0.62030    0.73220    0.39720    1.000
    H1       H        0.67850    0.76130    0.40440    1.000
    H2       H        0.60220    0.69170    0.43000    1.000
    C5       C        0.58300    0.81630    0.27830    1.000
    H3       H        0.64900    0.84430    0.28270    1.000
    C6       C        0.51300    0.84050    0.21750    1.000
    C7       C        0.41610    0.79620    0.20890    1.000
    C8       C        0.38460    0.73340    0.26500    1.000
    H4       H        0.31850    0.70560    0.25990    1.000
    N2       N        0.35510    0.80570    0.14110    1.000
    H5       H        0.37690    0.83930    0.10350    1.000
    H6       H        0.29530    0.77800    0.13650    1.000
    O6       O        0.13210    0.54910    0.32290    1.000
    C9       C        0.04860    0.59080    0.34190    1.000
    O7       O        0.99610    0.58640    0.40480    1.000
    O8       O        0.83830    0.01350    0.99640    1.000
    O9       O        0.98420    0.89610    0.07420    1.000
    C10      C        0.91700    0.85950    0.11540    1.000
    O10      O        0.81940    0.87840    0.11530    1.000
    C11      C        0.95210    0.78790    0.17130    1.000
    C12      C        0.05550    0.74940    0.16740    1.000
    N3       N        0.12030    0.76780    0.10280    1.000
    H7       H        0.17850    0.73870    0.09560    1.000
    H8       H        0.10220    0.80830    0.07000    1.000
    C13      C        0.08300    0.68370    0.22170    1.000
    H9       H        0.14900    0.65570    0.21730    1.000
    C14      C        0.01300    0.65950    0.28250    1.000
    C15      C        0.91610    0.70380    0.29110    1.000
    C16      C        0.88460    0.76660    0.23500    1.000
    H10      H        0.81850    0.79440    0.24010    1.000
    N4       N        0.85510    0.69430    0.35890    1.000
    H11      H        0.87690    0.66070    0.39650    1.000
    H12      H        0.79530    0.72200    0.36350    1.000
    O11      O        0.86790    0.04910    0.17710    1.000
    C17      C        0.95140    0.09080    0.15810    1.000
    O12      O        0.00390    0.08640    0.09520    1.000
    O13      O        0.16170    0.51350    0.50360    1.000
    O14      O        0.01580    0.39610    0.42580    1.000
    C18      C        0.08300    0.35950    0.38460    1.000
    O15      O        0.18060    0.37840    0.38470    1.000
    C19      C        0.04790    0.28790    0.32870    1.000
    C20      C        0.94450    0.24940    0.33260    1.000
    N5       N        0.87970    0.26780    0.39720    1.000
    H13      H        0.82150    0.23870    0.40440    1.000
    H14      H        0.89780    0.30830    0.43000    1.000
    C21      C        0.91700    0.18370    0.27830    1.000
    H15      H        0.85100    0.15570    0.28270    1.000
    C22      C        0.98700    0.15950    0.21750    1.000
    C23      C        0.08390    0.20380    0.20890    1.000
    C24      C        0.11540    0.26660    0.26500    1.000
    H16      H        0.18150    0.29440    0.25990    1.000
    N6       N        0.14490    0.19430    0.14110    1.000
    H17      H        0.12310    0.16070    0.10350    1.000
    H18      H        0.20470    0.22200    0.13650    1.000
    O16      O        0.36790    0.45090    0.32290    1.000
    C25      C        0.45140    0.40920    0.34190    1.000
    O17      O        0.50390    0.41360    0.40480    1.000
    O18      O        0.66170    0.98650    0.99640    1.000
    O19      O        0.51580    0.10390    0.07420    1.000
    C26      C        0.58300    0.14050    0.11540    1.000
    O20      O        0.68060    0.12160    0.11530    1.000
    C27      C        0.54790    0.21210    0.17130    1.000
    C28      C        0.44450    0.25060    0.16740    1.000
    N7       N        0.37970    0.23220    0.10280    1.000
    H19      H        0.32150    0.26130    0.09560    1.000
    H20      H        0.39780    0.19170    0.07000    1.000
    C29      C        0.41700    0.31630    0.22170    1.000
    H21      H        0.35100    0.34430    0.21730    1.000
    C30      C        0.48700    0.34050    0.28250    1.000
    C31      C        0.58390    0.29620    0.29110    1.000
    C32      C        0.61540    0.23340    0.23500    1.000
    H22      H        0.68150    0.20560    0.24010    1.000
    N8       N        0.64490    0.30570    0.35890    1.000
    H23      H        0.62310    0.33930    0.39650    1.000
    H24      H        0.70470    0.27800    0.36350    1.000
    O21      O        0.36790    0.04910    0.82290    1.000
    C33      C        0.45140    0.09080    0.84190    1.000
    O22      O        0.50390    0.08640    0.90480    1.000
    O23      O        0.66170    0.51350    0.49640    1.000
    O24      O        0.51580    0.39610    0.57420    1.000
    C34      C        0.58300    0.35950    0.61540    1.000
    O25      O        0.68060    0.37840    0.61530    1.000
    C35      C        0.54790    0.28790    0.67130    1.000
    C36      C        0.44450    0.24940    0.66740    1.000
    N9       N        0.37970    0.26780    0.60280    1.000
    H25      H        0.32150    0.23870    0.59560    1.000
    H26      H        0.39780    0.30830    0.57000    1.000
    C37      C        0.41700    0.18370    0.72170    1.000
    H27      H        0.35100    0.15570    0.71730    1.000
    C38      C        0.48700    0.15950    0.78250    1.000
    C39      C        0.58390    0.20380    0.79110    1.000
    C40      C        0.61540    0.26660    0.73500    1.000
    H28      H        0.68150    0.29440    0.74010    1.000
    N10      N        0.64490    0.19430    0.85890    1.000
    H29      H        0.62310    0.16070    0.89650    1.000
    H30      H        0.70470    0.22200    0.86350    1.000
    O26      O        0.86790    0.45090    0.67710    1.000
    C41      C        0.95140    0.40920    0.65810    1.000
    O27      O        0.00390    0.41360    0.59520    1.000
    O28      O        0.16170    0.98650    0.00360    1.000
    O29      O        0.01580    0.10390    0.92580    1.000
    C42      C        0.08300    0.14050    0.88460    1.000
    O30      O        0.18060    0.12160    0.88470    1.000
    C43      C        0.04790    0.21210    0.82870    1.000
    C44      C        0.94450    0.25060    0.83260    1.000
    N11      N        0.87970    0.23220    0.89720    1.000
    H31      H        0.82150    0.26130    0.90440    1.000
    H32      H        0.89780    0.19170    0.93000    1.000
    C45      C        0.91700    0.31630    0.77830    1.000
    H33      H        0.85100    0.34430    0.78270    1.000
    C46      C        0.98700    0.34050    0.71750    1.000
    C47      C        0.08390    0.29620    0.70890    1.000
    C48      C        0.11540    0.23340    0.76500    1.000
    H34      H        0.18150    0.20560    0.75990    1.000
    N12      N        0.14490    0.30570    0.64110    1.000
    H35      H        0.12310    0.33930    0.60350    1.000
    H36      H        0.20470    0.27800    0.63650    1.000
    O31      O        0.13210    0.95090    0.82290    1.000
    C49      C        0.04860    0.90920    0.84190    1.000
    O32      O        0.99610    0.91360    0.90480    1.000
    O33      O        0.83830    0.48650    0.49640    1.000
    O34      O        0.98420    0.60390    0.57420    1.000
    C50      C        0.91700    0.64050    0.61540    1.000
    O35      O        0.81940    0.62160    0.61530    1.000
    C51      C        0.95210    0.71210    0.67130    1.000
    C52      C        0.05550    0.75060    0.66740    1.000
    N13      N        0.12030    0.73220    0.60280    1.000
    H37      H        0.17850    0.76130    0.59560    1.000
    H38      H        0.10220    0.69170    0.57000    1.000
    C53      C        0.08300    0.81630    0.72170    1.000
    H39      H        0.14900    0.84430    0.71730    1.000
    C54      C        0.01300    0.84050    0.78250    1.000
    C55      C        0.91610    0.79620    0.79110    1.000
    C56      C        0.88460    0.73340    0.73500    1.000
    H40      H        0.81850    0.70560    0.74010    1.000
    N14      N        0.85510    0.80570    0.85890    1.000
    H41      H        0.87690    0.83930    0.89650    1.000
    H42      H        0.79530    0.77800    0.86350    1.000
    O36      O        0.63210    0.54910    0.67710    1.000
    C57      C        0.54860    0.59080    0.65810    1.000
    O37      O        0.49610    0.58640    0.59520    1.000
    O38      O        0.33830    0.01350    0.00360    1.000
    O39      O        0.48420    0.89610    0.92580    1.000
    C58      C        0.41700    0.85950    0.88460    1.000
    O40      O        0.31940    0.87840    0.88470    1.000
    C59      C        0.45210    0.78790    0.82870    1.000
    C60      C        0.55550    0.74940    0.83260    1.000
    N15      N        0.62030    0.76780    0.89720    1.000
    H43      H        0.67850    0.73870    0.90440    1.000
    H44      H        0.60220    0.80830    0.93000    1.000
    C61      C        0.58300    0.68370    0.77830    1.000
    H45      H        0.64900    0.65570    0.78270    1.000
    C62      C        0.51300    0.65950    0.71750    1.000
    C63      C        0.41610    0.70380    0.70890    1.000
    C64      C        0.38460    0.76660    0.76500    1.000
    H46      H        0.31850    0.79440    0.75990    1.000
    N16      N        0.35510    0.69430    0.64110    1.000
    H47      H        0.37690    0.66070    0.60350    1.000
    H48      H        0.29530    0.72200    0.63650    1.000
    Mg1      Mg       0.25000    0.50000    0.39148    1.000
    N17      N        0.25000    0.50000    0.54200    1.000
    O41      O        0.25000    0.50000    0.62160    1.000
    Mg2      Mg       0.75000    0.00000    0.10852    1.000
    N18      N        0.75000    0.00000    0.95800    1.000
    O42      O        0.75000    0.00000    0.87840    1.000
    Mg3      Mg       0.75000    0.50000    0.60852    1.000
    N19      N        0.75000    0.50000    0.45800    1.000
    O43      O        0.75000    0.50000    0.37840    1.000
    Mg4      Mg       0.25000    0.00000    0.89148    1.000
    N20      N        0.25000    0.00000    0.04200    1.000
    O44      O        0.25000    0.00000    0.12160    1.000
    Mg5      Mg       0.50000    0.50000    0.50000    1.000
    Mg6      Mg       0.00000    0.00000    0.00000    1.000
    Mg7      Mg       0.00000    0.50000    0.50000    1.000
    Mg8      Mg       0.50000    0.00000    0.00000    1.000
