data_functionalizedCrystal
_audit_creation_method	'EQeq! by Chris Wilmer'
_symmetry_space_group_name_H-M	'P1'
_symmetry_Int_Tables_number	1
_symmetry_cell_setting	triclinic
loop_
_symmetry_equiv_pos_as_xyz
  x,y,z
_cell_length_a	18.6731
_cell_length_b	18.6731
_cell_length_c	30.862
_cell_angle_alpha	90
_cell_angle_beta	90
_cell_angle_gamma	90
loop_
_atom_site_label
_atom_site_type_symbol
_atom_site_fract_x
_atom_site_fract_y
_atom_site_fract_z
_atom_site_charge
Mof_O 	O 	0.9984	0.6279	0.3954	-0.222
Mof_C 	C 	0.9441	0.5324	0.3599	-0.093
Mof_H 	H 	0.9047	0.5339	0.3793	0.062
Mof_C 	C 	0.9454	0.4822	0.3267	0.092
Mof_H 	H 	0.9069	0.4494	0.3234	-0.005
Mof_N 	N 	0.0031	0.4799	0.2982	0.037
Mof_C 	C 	0.9405	0.5279	0.3031	-0.022
Mof_H 	H 	0.9011	0.5264	0.2836	0.026
Mof_C 	C 	0.0581	0.5781	0.3363	-0.008
Mof_H 	H 	0.0967	0.6109	0.3396	0.025
Mof_C 	C 	0.003	0.4314	0.263	0.18
Mof_C 	C 	0.0631	0.3904	0.2534	-0.074
Mof_H 	H 	0.1052	0.3951	0.2705	0.04
Mof_C 	C 	0.0616	0.3426	0.2189	0.036
Mof_H 	H 	0.1027	0.3146	0.2124	0.017
Mof_C 	C 	0.0601	0.3767	0.2035	-0.012
Mof_H 	H 	0.1022	0.372	0.1865	0.022
Mof_C 	C 	0.9414	0.4245	0.238	-0.039
Mof_H 	H 	0.9003	0.4525	0.2445	0.034
Mof_O 	O 	0.9321	0.7748	0.33	0.07
Mof_C 	C 	0.8773	0.7702	0.3041	0.457
Mof_C 	C 	0.8222	0.7227	0.3139	0.035
Mof_H 	H 	0.8248	0.6941	0.3393	0.136
Mof_C 	C 	0.7634	0.7171	0.2865	0.636
Mof_H 	H 	0.7258	0.6847	0.2932	-0.265
Mof_N 	N 	0.2403	0.759	0.2493	-0.032
Mof_C 	C 	0.1853	0.8064	0.2395	-0.173
Mof_H 	H 	0.8122	0.835	0.2141	0.144
Mof_C 	C 	0.8735	0.812	0.267	0.1
Mof_H 	H 	0.9111	0.8444	0.2603	0.002
Mof_C 	C 	0.2017	0.7528	0.2788	-0.337
Mof_C 	C 	0.1368	0.7844	0.2681	-0.067
Mof_H 	H 	0.6299	0.804	0.2601	0.055
Mof_C 	C 	0.0818	0.7874	0.2984	-0.611
Mof_H 	H 	0.5374	0.809	0.209	0.206
Mof_N 	N 	0.0919	0.7588	0.3395	-0.087
Mof_C 	C 	0.1569	0.7271	0.3503	-0.116
Mof_H 	H 	0.6637	0.7075	0.1216	0.056
Mof_C 	C 	0.2118	0.7241	0.32	-0.326
Mof_H 	H 	0.2562	0.7025	0.3273	0.088
Mof_O 	O 	0.4984	0.1279	0.8954	-0.122
Mof_C 	C 	0.4441	0.0324	0.8599	-0.163
Mof_H 	H 	0.4047	0.0339	0.8793	0.08
Mof_C 	C 	0.4454	0.9822	0.8267	0.093
Mof_H 	H 	0.4069	0.9494	0.8234	-0.01
Mof_N 	N 	0.5031	0.9799	0.7982	-0.066
Mof_C 	C 	0.4405	0.0279	0.8031	-0.03
Mof_H 	H 	0.4011	0.0264	0.7836	0.026
Mof_C 	C 	0.5581	0.0781	0.8363	-0.071
Mof_H 	H 	0.5967	0.1109	0.8396	0.05
Mof_C 	C 	0.503	0.9314	0.763	0.039
Mof_C 	C 	0.5631	0.8904	0.7534	-0.058
Mof_H 	H 	0.6052	0.8951	0.7705	0.041
Mof_C 	C 	0.5616	0.8426	0.7189	0.02
Mof_H 	H 	0.6027	0.8146	0.7124	0.025
Mof_C 	C 	0.5601	0.8767	0.7035	0.002
Mof_H 	H 	0.6022	0.872	0.6865	0.019
Mof_C 	C 	0.4414	0.9245	0.738	-0.058
Mof_H 	H 	0.4003	0.9525	0.7445	0.038
Mof_O 	O 	0.4321	0.2748	0.83	0.071
Mof_C 	C 	0.3773	0.2702	0.8041	0.489
Mof_C 	C 	0.3222	0.2227	0.8139	0.024
Mof_H 	H 	0.3248	0.1941	0.8393	0.14
Mof_C 	C 	0.2634	0.2171	0.7865	0.698
Mof_H 	H 	0.2258	0.1847	0.7932	-0.29
Mof_N 	N 	0.7403	0.259	0.7493	-0.008
Mof_C 	C 	0.6853	0.3064	0.7395	-0.175
Mof_H 	H 	0.3122	0.335	0.7141	0.156
Mof_C 	C 	0.3735	0.312	0.767	0.113
Mof_H 	H 	0.4111	0.3444	0.7603	-0.006
Mof_C 	C 	0.7017	0.2528	0.7788	-0.299
Mof_C 	C 	0.6368	0.2844	0.7681	-0.079
Mof_H 	H 	0.1299	0.304	0.7601	0.046
Mof_C 	C 	0.5818	0.2874	0.7984	-0.556
Mof_H 	H 	0.0374	0.309	0.709	0.206
Mof_N 	N 	0.5919	0.2588	0.8395	-0.072
Mof_C 	C 	0.6569	0.2271	0.8503	-0.119
Mof_H 	H 	0.1637	0.2075	0.6216	0.054
Mof_C 	C 	0.7118	0.2241	0.82	-0.308
Mof_H 	H 	0.7562	0.2025	0.8273	0.087
Mof_O 	O 	0.5016	0.3721	0.8954	-0.122
Mof_C 	C 	0.5559	0.4676	0.8599	-0.173
Mof_H 	H 	0.5953	0.4661	0.8793	0.083
Mof_C 	C 	0.5546	0.5178	0.8267	0.103
Mof_H 	H 	0.5931	0.5506	0.8234	-0.013
Mof_N 	N 	0.4969	0.5201	0.7982	-0.066
Mof_C 	C 	0.5595	0.4721	0.8031	-0.04
Mof_H 	H 	0.5989	0.4736	0.7836	0.03
Mof_C 	C 	0.4419	0.4219	0.8363	-0.062
Mof_H 	H 	0.4033	0.3891	0.8396	0.046
Mof_C 	C 	0.497	0.5686	0.763	0.039
Mof_C 	C 	0.4369	0.6096	0.7534	-0.058
Mof_H 	H 	0.3948	0.6049	0.7705	0.04
Mof_C 	C 	0.4384	0.6574	0.7189	0.019
Mof_H 	H 	0.3973	0.6854	0.7124	0.024
Mof_C 	C 	0.4399	0.6233	0.7035	0.003
Mof_H 	H 	0.3978	0.628	0.6865	0.019
Mof_C 	C 	0.5586	0.5755	0.738	-0.058
Mof_H 	H 	0.5997	0.5475	0.7445	0.038
Mof_O 	O 	0.5679	0.2252	0.83	0.02
Mof_C 	C 	0.6227	0.2298	0.8041	0.45
Mof_C 	C 	0.6778	0.2773	0.8139	0.001
Mof_H 	H 	0.6752	0.3059	0.8393	0.14
Mof_C 	C 	0.7366	0.2829	0.7865	0.631
Mof_H 	H 	0.7742	0.3153	0.7932	-0.257
Mof_N 	N 	0.2597	0.241	0.7493	-0.104
Mof_C 	C 	0.3147	0.1936	0.7395	-0.145
Mof_H 	H 	0.6878	0.165	0.7141	0.158
Mof_C 	C 	0.6265	0.188	0.767	0.118
Mof_H 	H 	0.5889	0.1556	0.7603	-0.011
Mof_C 	C 	0.2983	0.2472	0.7788	-0.329
Mof_C 	C 	0.3632	0.2156	0.7681	-0.067
Mof_H 	H 	0.8701	0.196	0.7601	0.052
Mof_C 	C 	0.4182	0.2126	0.7984	-0.637
Mof_H 	H 	0.9626	0.191	0.709	0.239
Mof_N 	N 	0.4081	0.2412	0.8395	-0.103
Mof_C 	C 	0.3431	0.2729	0.8503	-0.111
Mof_H 	H 	0.8363	0.2925	0.6216	0.057
Mof_C 	C 	0.2882	0.2759	0.82	-0.362
Mof_H 	H 	0.2438	0.2975	0.8273	0.1
Mof_O 	O 	0.0016	0.8721	0.3954	0.017
Mof_C 	C 	0.0559	0.9676	0.3599	-0.157
Mof_H 	H 	0.0953	0.9661	0.3793	0.073
Mof_C 	C 	0.0546	0.0178	0.3267	0.076
Mof_H 	H 	0.0931	0.0506	0.3234	-0.009
Mof_N 	N 	0.9969	0.0201	0.2982	-0.16
Mof_C 	C 	0.0595	0.9721	0.3031	-0.087
Mof_H 	H 	0.0989	0.9736	0.2836	0.041
Mof_C 	C 	0.9419	0.9219	0.3363	-0.035
Mof_H 	H 	0.9033	0.8891	0.3396	0.042
Mof_C 	C 	0.997	0.0686	0.263	-0.098
Mof_C 	C 	0.9369	0.1096	0.2534	-0.048
Mof_H 	H 	0.8948	0.1049	0.2705	0.041
Mof_C 	C 	0.9384	0.1574	0.2189	0.025
Mof_H 	H 	0.8973	0.1854	0.2124	0.028
Mof_C 	C 	0.9399	0.1233	0.2035	0.038
Mof_H 	H 	0.8978	0.128	0.1865	0.01
Mof_C 	C 	0.0586	0.0755	0.238	-0.088
Mof_H 	H 	0.0997	0.0475	0.2445	0.044
Mof_O 	O 	0.0679	0.7252	0.33	0.042
Mof_C 	C 	0.1227	0.7298	0.3041	0.483
Mof_C 	C 	0.1778	0.7773	0.3139	-0.002
Mof_H 	H 	0.1752	0.8059	0.3393	0.143
Mof_C 	C 	0.2366	0.7829	0.2865	0.694
Mof_H 	H 	0.2742	0.8153	0.2932	-0.286
Mof_N 	N 	0.7597	0.741	0.2493	-0.121
Mof_C 	C 	0.8147	0.6936	0.2395	-0.133
Mof_H 	H 	0.1878	0.665	0.2141	0.164
Mof_C 	C 	0.1265	0.688	0.267	0.121
Mof_H 	H 	0.0889	0.6556	0.2603	-0.017
Mof_C 	C 	0.7983	0.7472	0.2788	-0.288
Mof_C 	C 	0.8632	0.7156	0.2681	-0.074
Mof_H 	H 	0.3701	0.696	0.2601	0.045
Mof_C 	C 	0.9182	0.7126	0.2984	-0.599
Mof_H 	H 	0.4626	0.691	0.209	0.234
Mof_N 	N 	0.9081	0.7412	0.3395	-0.097
Mof_C 	C 	0.8431	0.7729	0.3503	-0.111
Mof_H 	H 	0.3363	0.7925	0.1216	0.054
Mof_C 	C 	0.7882	0.7759	0.32	-0.359
Mof_H 	H 	0.7438	0.7975	0.3273	0.103
Mof_O 	O 	0.6221	0.7484	0.6454	-0.122
Mof_C 	C 	0.7176	0.6941	0.6099	-0.17
Mof_H 	H 	0.7161	0.6547	0.6293	0.083
Mof_C 	C 	0.7678	0.6954	0.5767	0.102
Mof_H 	H 	0.8006	0.6569	0.5734	-0.01
Mof_N 	N 	0.7701	0.7531	0.5482	-0.066
Mof_C 	C 	0.7221	0.6905	0.5531	-0.039
Mof_H 	H 	0.7236	0.6511	0.5336	0.029
Mof_C 	C 	0.6719	0.8081	0.5863	-0.064
Mof_H 	H 	0.6391	0.8467	0.5896	0.047
Mof_C 	C 	0.8186	0.753	0.513	0.04
Mof_C 	C 	0.8596	0.8131	0.5034	-0.042
Mof_H 	H 	0.8549	0.8552	0.5205	0.04
Mof_C 	C 	0.9074	0.8116	0.4689	0.032
Mof_H 	H 	0.9354	0.8527	0.4624	0.035
Mof_C 	C 	0.8733	0.8101	0.4535	-0.01
Mof_H 	H 	0.878	0.8522	0.4365	0.028
Mof_C 	C 	0.8255	0.6914	0.488	-0.071
Mof_H 	H 	0.7975	0.6503	0.4945	0.043
Mof_O 	O 	0.4752	0.6821	0.58	0.051
Mof_C 	C 	0.4798	0.6273	0.5541	0.475
Mof_C 	C 	0.5273	0.5722	0.5639	0.014
Mof_H 	H 	0.5559	0.5748	0.5893	0.14
Mof_C 	C 	0.5329	0.5134	0.5365	0.675
Mof_H 	H 	0.5653	0.4758	0.5432	-0.279
Mof_N 	N 	0.491	0.9903	0.4993	-0.067
Mof_C 	C 	0.4436	0.9353	0.4895	-0.157
Mof_H 	H 	0.415	0.5622	0.4641	0.157
Mof_C 	C 	0.438	0.6235	0.517	0.115
Mof_H 	H 	0.4056	0.6611	0.5103	-0.008
Mof_C 	C 	0.4972	0.9517	0.5288	-0.319
Mof_C 	C 	0.4656	0.8868	0.5181	-0.071
Mof_H 	H 	0.446	0.3799	0.5101	0.049
Mof_C 	C 	0.4626	0.8318	0.5484	-0.607
Mof_H 	H 	0.441	0.2874	0.459	0.223
Mof_N 	N 	0.4912	0.8419	0.5895	-0.091
Mof_C 	C 	0.5229	0.9069	0.6003	-0.114
Mof_H 	H 	0.5425	0.4137	0.3716	0.055
Mof_C 	C 	0.5259	0.9618	0.57	-0.341
Mof_H 	H 	0.5475	0.0062	0.5773	0.095
Mof_O 	O 	0.1221	0.2484	0.1454	-0.121
Mof_C 	C 	0.2176	0.1941	0.1099	-0.166
Mof_H 	H 	0.2161	0.1547	0.1293	0.081
Mof_C 	C 	0.2678	0.1954	0.0767	0.098
Mof_H 	H 	0.3006	0.1569	0.0734	-0.011
Mof_N 	N 	0.2701	0.2531	0.0482	-0.066
Mof_C 	C 	0.2221	0.1905	0.0531	-0.035
Mof_H 	H 	0.2236	0.1511	0.0336	0.028
Mof_C 	C 	0.1719	0.3081	0.0863	-0.072
Mof_H 	H 	0.1391	0.3467	0.0896	0.056
Mof_C 	C 	0.3186	0.253	0.013	0.039
Mof_C 	C 	0.3596	0.3131	0.0034	-0.058
Mof_H 	H 	0.3549	0.3552	0.0205	0.041
Mof_C 	C 	0.4074	0.3116	0.9689	0.019
Mof_H 	H 	0.4354	0.3527	0.9624	0.025
Mof_C 	C 	0.3733	0.3101	0.9535	0.003
Mof_H 	H 	0.378	0.3522	0.9365	0.019
Mof_C 	C 	0.3255	0.1914	0.988	-0.058
Mof_H 	H 	0.2975	0.1503	0.9945	0.039
Mof_O 	O 	0.9752	0.1821	0.08	0.154
Mof_C 	C 	0.9798	0.1273	0.0541	0.297
Mof_C 	C 	0.0273	0.0722	0.0639	0.24
Mof_H 	H 	0.0559	0.0748	0.0893	0.011
Mof_C 	C 	0.0329	0.0134	0.0365	0.215
Mof_H 	H 	0.0653	0.9758	0.0432	-0.079
Mof_N 	N 	0.991	0.4903	0.9993	0.168
Mof_C 	C 	0.9436	0.4353	0.9895	-0.453
Mof_H 	H 	0.915	0.0622	0.9641	0.328
Mof_C 	C 	0.938	0.1235	0.017	0.237
Mof_H 	H 	0.9056	0.1611	0.0103	-0.058
Mof_C 	C 	0.9972	0.4517	0.0288	-0.411
Mof_C 	C 	0.9656	0.3868	0.0181	-0.071
Mof_H 	H 	0.946	0.8799	0.0101	0.091
Mof_C 	C 	0.9626	0.3318	0.0484	-0.457
Mof_H 	H 	0.941	0.7874	0.959	0.182
Mof_N 	N 	0.9912	0.3419	0.0895	-0.172
Mof_C 	C 	0.0229	0.4069	0.1003	-0.03
Mof_H 	H 	0.0425	0.9137	0.8716	0.035
Mof_C 	C 	0.0259	0.4618	0.07	-0.288
Mof_H 	H 	0.0475	0.5062	0.0773	0.085
Mof_O 	O 	0.8779	0.2516	0.1454	-0.117
Mof_C 	C 	0.7824	0.3059	0.1099	-0.182
Mof_H 	H 	0.7839	0.3453	0.1293	0.086
Mof_C 	C 	0.7322	0.3046	0.0767	0.111
Mof_H 	H 	0.6994	0.3431	0.0734	-0.016
Mof_N 	N 	0.7299	0.2469	0.0482	-0.066
Mof_C 	C 	0.7779	0.3095	0.0531	-0.048
Mof_H 	H 	0.7764	0.3489	0.0336	0.032
Mof_C 	C 	0.8281	0.1919	0.0863	-0.047
Mof_H 	H 	0.8609	0.1533	0.0896	0.036
Mof_C 	C 	0.6814	0.247	0.013	0.039
Mof_C 	C 	0.6404	0.1869	0.0034	-0.059
Mof_H 	H 	0.6451	0.1448	0.0205	0.04
Mof_C 	C 	0.5926	0.1884	0.9689	0.015
Mof_H 	H 	0.5646	0.1473	0.9624	0.026
Mof_C 	C 	0.6267	0.1899	0.9535	0.007
Mof_H 	H 	0.622	0.1478	0.9365	0.018
Mof_C 	C 	0.6745	0.3086	0.988	-0.058
Mof_H 	H 	0.7025	0.3497	0.9945	0.038
Mof_O 	O 	0.0248	0.3179	0.08	-0.048
Mof_C 	C 	0.0202	0.3727	0.0541	0.645
Mof_C 	C 	0.9727	0.4278	0.0639	-0.215
Mof_H 	H 	0.9441	0.4252	0.0893	0.27
Mof_C 	C 	0.9671	0.4866	0.0365	1.12
Mof_H 	H 	0.9347	0.5242	0.0432	-0.472
Mof_N 	N 	0.009	0.0097	0.9993	-0.293
Mof_C 	C 	0.0564	0.0647	0.9895	0.136
Mof_H 	H 	0.085	0.4378	0.9641	-0.021
Mof_C 	C 	0.062	0.3765	0.017	-0.014
Mof_H 	H 	0.0944	0.3389	0.0103	0.044
Mof_C 	C 	0.0028	0.0483	0.0288	-0.215
Mof_C 	C 	0.0344	0.1132	0.0181	-0.073
Mof_H 	H 	0.054	0.6201	0.0101	0.009
Mof_C 	C 	0.0374	0.1682	0.0484	-0.742
Mof_H 	H 	0.059	0.7126	0.959	0.261
Mof_N 	N 	0.0088	0.1581	0.0895	-0.01
Mof_C 	C 	0.9771	0.0931	0.1003	-0.197
Mof_H 	H 	0.9575	0.5863	0.8716	0.079
Mof_C 	C 	0.9741	0.0382	0.07	-0.389
Mof_H 	H 	0.9525	0.9938	0.0773	0.104
Mof_O 	O 	0.3779	0.7516	0.6454	-0.123
Mof_C 	C 	0.2824	0.8059	0.6099	-0.174
Mof_H 	H 	0.2839	0.8453	0.6293	0.082
Mof_C 	C 	0.2322	0.8046	0.5767	0.101
Mof_H 	H 	0.1994	0.8431	0.5734	-0.015
Mof_N 	N 	0.2299	0.7469	0.5482	-0.066
Mof_C 	C 	0.2779	0.8095	0.5531	-0.039
Mof_H 	H 	0.2764	0.8489	0.5336	0.029
Mof_C 	C 	0.3281	0.6919	0.5863	-0.062
Mof_H 	H 	0.3609	0.6533	0.5896	0.046
Mof_C 	C 	0.1814	0.747	0.513	0.038
Mof_C 	C 	0.1404	0.6869	0.5034	-0.074
Mof_H 	H 	0.1451	0.6448	0.5205	0.041
Mof_C 	C 	0.0926	0.6884	0.4689	0.007
Mof_H 	H 	0.0646	0.6473	0.4624	0.016
Mof_C 	C 	0.1267	0.6899	0.4535	0.014
Mof_H 	H 	0.122	0.6478	0.4365	0.013
Mof_C 	C 	0.1745	0.8086	0.488	-0.046
Mof_H 	H 	0.2025	0.8497	0.4945	0.034
Mof_O 	O 	0.5248	0.8179	0.58	0.051
Mof_C 	C 	0.5202	0.8727	0.5541	0.475
Mof_C 	C 	0.4727	0.9278	0.5639	0.014
Mof_H 	H 	0.4441	0.9252	0.5893	0.14
Mof_C 	C 	0.4671	0.9866	0.5365	0.674
Mof_H 	H 	0.4347	0.0242	0.5432	-0.278
Mof_N 	N 	0.509	0.5097	0.4993	-0.066
Mof_C 	C 	0.5564	0.5647	0.4895	-0.157
Mof_H 	H 	0.585	0.9378	0.4641	0.158
Mof_C 	C 	0.562	0.8765	0.517	0.115
Mof_H 	H 	0.5944	0.8389	0.5103	-0.008
Mof_C 	C 	0.5028	0.5483	0.5288	-0.319
Mof_C 	C 	0.5344	0.6132	0.5181	-0.071
Mof_H 	H 	0.554	0.1201	0.5101	0.049
Mof_C 	C 	0.5374	0.6682	0.5484	-0.607
Mof_H 	H 	0.559	0.2126	0.459	0.223
Mof_N 	N 	0.5088	0.6581	0.5895	-0.091
Mof_C 	C 	0.4771	0.5931	0.6003	-0.114
Mof_H 	H 	0.4575	0.0863	0.3716	0.055
Mof_C 	C 	0.4741	0.5382	0.57	-0.341
Mof_H 	H 	0.4525	0.4938	0.5773	0.095
Mof_O 	O 	0.5016	0.6279	0.1046	-0.122
Mof_C 	C 	0.5559	0.5324	0.1401	-0.173
Mof_H 	H 	0.5953	0.5339	0.1207	0.083
Mof_C 	C 	0.5546	0.4822	0.1733	0.103
Mof_H 	H 	0.5931	0.4494	0.1766	-0.013
Mof_N 	N 	0.4969	0.4799	0.2018	-0.066
Mof_C 	C 	0.5595	0.5279	0.1969	-0.04
Mof_H 	H 	0.5989	0.5264	0.2164	0.03
Mof_C 	C 	0.4419	0.5781	0.1637	-0.062
Mof_H 	H 	0.4033	0.6109	0.1604	0.046
Mof_C 	C 	0.497	0.4314	0.237	0.039
Mof_C 	C 	0.4369	0.3904	0.2466	-0.058
Mof_H 	H 	0.3948	0.3951	0.2295	0.04
Mof_C 	C 	0.4384	0.3426	0.2811	0.019
Mof_H 	H 	0.3973	0.3146	0.2876	0.024
Mof_C 	C 	0.4399	0.3767	0.2965	0.003
Mof_H 	H 	0.3978	0.372	0.3135	0.019
Mof_C 	C 	0.5586	0.4245	0.262	-0.058
Mof_H 	H 	0.5997	0.4525	0.2555	0.038
Mof_O 	O 	0.5679	0.7748	0.17	0.02
Mof_C 	C 	0.6227	0.7702	0.1959	0.45
Mof_C 	C 	0.6778	0.7227	0.1861	0.001
Mof_H 	H 	0.6752	0.6941	0.1607	0.14
Mof_C 	C 	0.7366	0.7171	0.2135	0.631
Mof_H 	H 	0.7742	0.6847	0.2068	-0.257
Mof_N 	N 	0.2597	0.759	0.2507	-0.104
Mof_C 	C 	0.3147	0.8064	0.2605	-0.145
Mof_H 	H 	0.6878	0.835	0.2859	0.158
Mof_C 	C 	0.6265	0.812	0.233	0.118
Mof_H 	H 	0.5889	0.8444	0.2397	-0.011
Mof_C 	C 	0.2983	0.7528	0.2212	-0.329
Mof_C 	C 	0.3632	0.7844	0.2319	-0.067
Mof_H 	H 	0.8701	0.804	0.2399	0.052
Mof_C 	C 	0.4182	0.7874	0.2016	-0.637
Mof_H 	H 	0.9626	0.809	0.291	0.239
Mof_N 	N 	0.4081	0.7588	0.1605	-0.103
Mof_C 	C 	0.3431	0.7271	0.1497	-0.111
Mof_H 	H 	0.8363	0.7075	0.3784	0.057
Mof_C 	C 	0.2882	0.7241	0.18	-0.362
Mof_H 	H 	0.2438	0.7025	0.1727	0.1
Mof_O 	O 	0.0016	0.1279	0.6046	0.017
Mof_C 	C 	0.0559	0.0324	0.6401	-0.157
Mof_H 	H 	0.0953	0.0339	0.6207	0.073
Mof_C 	C 	0.0546	0.9822	0.6733	0.076
Mof_H 	H 	0.0931	0.9494	0.6766	-0.009
Mof_N 	N 	0.9969	0.9799	0.7018	-0.16
Mof_C 	C 	0.0595	0.0279	0.6969	-0.087
Mof_H 	H 	0.0989	0.0264	0.7164	0.041
Mof_C 	C 	0.9419	0.0781	0.6637	-0.035
Mof_H 	H 	0.9033	0.1109	0.6604	0.042
Mof_C 	C 	0.997	0.9314	0.737	-0.098
Mof_C 	C 	0.9369	0.8904	0.7466	-0.048
Mof_H 	H 	0.8948	0.8951	0.7295	0.041
Mof_C 	C 	0.9384	0.8426	0.7811	0.025
Mof_H 	H 	0.8973	0.8146	0.7876	0.028
Mof_C 	C 	0.9399	0.8767	0.7965	0.038
Mof_H 	H 	0.8978	0.872	0.8135	0.01
Mof_C 	C 	0.0586	0.9245	0.762	-0.088
Mof_H 	H 	0.0997	0.9525	0.7555	0.044
Mof_O 	O 	0.0679	0.2748	0.67	0.042
Mof_C 	C 	0.1227	0.2702	0.6959	0.483
Mof_C 	C 	0.1778	0.2227	0.6861	-0.002
Mof_H 	H 	0.1752	0.1941	0.6607	0.143
Mof_C 	C 	0.2366	0.2171	0.7135	0.694
Mof_H 	H 	0.2742	0.1847	0.7068	-0.286
Mof_N 	N 	0.7597	0.259	0.7507	-0.121
Mof_C 	C 	0.8147	0.3064	0.7605	-0.133
Mof_H 	H 	0.1878	0.335	0.7859	0.164
Mof_C 	C 	0.1265	0.312	0.733	0.121
Mof_H 	H 	0.0889	0.3444	0.7397	-0.017
Mof_C 	C 	0.7983	0.2528	0.7212	-0.288
Mof_C 	C 	0.8632	0.2844	0.7319	-0.074
Mof_H 	H 	0.3701	0.304	0.7399	0.045
Mof_C 	C 	0.9182	0.2874	0.7016	-0.599
Mof_H 	H 	0.4626	0.309	0.791	0.234
Mof_N 	N 	0.9081	0.2588	0.6605	-0.097
Mof_C 	C 	0.8431	0.2271	0.6497	-0.111
Mof_H 	H 	0.3363	0.2075	0.8784	0.054
Mof_C 	C 	0.7882	0.2241	0.68	-0.359
Mof_H 	H 	0.7438	0.2025	0.6727	0.103
Mof_O 	O 	0.9984	0.3721	0.6046	-0.221
Mof_C 	C 	0.9441	0.4676	0.6401	-0.092
Mof_H 	H 	0.9047	0.4661	0.6207	0.063
Mof_C 	C 	0.9454	0.5178	0.6733	0.093
Mof_H 	H 	0.9069	0.5506	0.6766	-0.004
Mof_N 	N 	0.0031	0.5201	0.7018	0.038
Mof_C 	C 	0.9405	0.4721	0.6969	-0.021
Mof_H 	H 	0.9011	0.4736	0.7164	0.027
Mof_C 	C 	0.0581	0.4219	0.6637	-0.007
Mof_H 	H 	0.0967	0.3891	0.6604	0.026
Mof_C 	C 	0.003	0.5686	0.737	0.181
Mof_C 	C 	0.0631	0.6096	0.7466	-0.073
Mof_H 	H 	0.1052	0.6049	0.7295	0.041
Mof_C 	C 	0.0616	0.6574	0.7811	0.037
Mof_H 	H 	0.1027	0.6854	0.7876	0.018
Mof_C 	C 	0.0601	0.6233	0.7965	-0.011
Mof_H 	H 	0.1022	0.628	0.8135	0.023
Mof_C 	C 	0.9414	0.5755	0.762	-0.038
Mof_H 	H 	0.9003	0.5475	0.7555	0.035
Mof_O 	O 	0.9321	0.2252	0.67	0.071
Mof_C 	C 	0.8773	0.2298	0.6959	0.458
Mof_C 	C 	0.8222	0.2773	0.6861	0.036
Mof_H 	H 	0.8248	0.3059	0.6607	0.137
Mof_C 	C 	0.7634	0.2829	0.7135	0.637
Mof_H 	H 	0.7258	0.3153	0.7068	-0.264
Mof_N 	N 	0.2403	0.241	0.7507	-0.031
Mof_C 	C 	0.1853	0.1936	0.7605	-0.172
Mof_H 	H 	0.8122	0.165	0.7859	0.145
Mof_C 	C 	0.8735	0.188	0.733	0.101
Mof_H 	H 	0.9111	0.1556	0.7397	0.003
Mof_C 	C 	0.2017	0.2472	0.7212	-0.336
Mof_C 	C 	0.1368	0.2156	0.7319	-0.066
Mof_H 	H 	0.6299	0.196	0.7399	0.056
Mof_C 	C 	0.0818	0.2126	0.7016	-0.61
Mof_H 	H 	0.5374	0.191	0.791	0.206
Mof_N 	N 	0.0919	0.2412	0.6605	-0.087
Mof_C 	C 	0.1569	0.2729	0.6497	-0.116
Mof_H 	H 	0.6637	0.2925	0.8784	0.056
Mof_C 	C 	0.2118	0.2759	0.68	-0.326
Mof_H 	H 	0.2562	0.2975	0.6727	0.088
Mof_O 	O 	0.4984	0.8721	0.1046	-0.122
Mof_C 	C 	0.4441	0.9676	0.1401	-0.163
Mof_H 	H 	0.4047	0.9661	0.1207	0.08
Mof_C 	C 	0.4454	0.0178	0.1733	0.093
Mof_H 	H 	0.4069	0.0506	0.1766	-0.01
Mof_N 	N 	0.5031	0.0201	0.2018	-0.066
Mof_C 	C 	0.4405	0.9721	0.1969	-0.03
Mof_H 	H 	0.4011	0.9736	0.2164	0.026
Mof_C 	C 	0.5581	0.9219	0.1637	-0.071
Mof_H 	H 	0.5967	0.8891	0.1604	0.05
Mof_C 	C 	0.503	0.0686	0.237	0.039
Mof_C 	C 	0.5631	0.1096	0.2466	-0.058
Mof_H 	H 	0.6052	0.1049	0.2295	0.041
Mof_C 	C 	0.5616	0.1574	0.2811	0.02
Mof_H 	H 	0.6027	0.1854	0.2876	0.025
Mof_C 	C 	0.5601	0.1233	0.2965	0.002
Mof_H 	H 	0.6022	0.128	0.3135	0.019
Mof_C 	C 	0.4414	0.0755	0.262	-0.058
Mof_H 	H 	0.4003	0.0475	0.2555	0.038
Mof_O 	O 	0.4321	0.7252	0.17	0.071
Mof_C 	C 	0.3773	0.7298	0.1959	0.489
Mof_C 	C 	0.3222	0.7773	0.1861	0.024
Mof_H 	H 	0.3248	0.8059	0.1607	0.14
Mof_C 	C 	0.2634	0.7829	0.2135	0.698
Mof_H 	H 	0.2258	0.8153	0.2068	-0.29
Mof_N 	N 	0.7403	0.741	0.2507	-0.008
Mof_C 	C 	0.6853	0.6936	0.2605	-0.175
Mof_H 	H 	0.3122	0.665	0.2859	0.156
Mof_C 	C 	0.3735	0.688	0.233	0.113
Mof_H 	H 	0.4111	0.6556	0.2397	-0.006
Mof_C 	C 	0.7017	0.7472	0.2212	-0.299
Mof_C 	C 	0.6368	0.7156	0.2319	-0.079
Mof_H 	H 	0.1299	0.696	0.2399	0.046
Mof_C 	C 	0.5818	0.7126	0.2016	-0.556
Mof_H 	H 	0.0374	0.691	0.291	0.206
Mof_N 	N 	0.5919	0.7412	0.1605	-0.072
Mof_C 	C 	0.6569	0.7729	0.1497	-0.119
Mof_H 	H 	0.1637	0.7925	0.3784	0.054
Mof_C 	C 	0.7118	0.7759	0.18	-0.308
Mof_H 	H 	0.7562	0.7975	0.1727	0.087
Mof_O 	O 	0.8779	0.7484	0.8546	-0.117
Mof_C 	C 	0.7824	0.6941	0.8901	-0.182
Mof_H 	H 	0.7839	0.6547	0.8707	0.086
Mof_C 	C 	0.7322	0.6954	0.9233	0.111
Mof_H 	H 	0.6994	0.6569	0.9266	-0.016
Mof_N 	N 	0.7299	0.7531	0.9518	-0.066
Mof_C 	C 	0.7779	0.6905	0.9469	-0.048
Mof_H 	H 	0.7764	0.6511	0.9664	0.032
Mof_C 	C 	0.8281	0.8081	0.9137	-0.047
Mof_H 	H 	0.8609	0.8467	0.9104	0.036
Mof_C 	C 	0.6814	0.753	0.987	0.039
Mof_C 	C 	0.6404	0.8131	0.9966	-0.059
Mof_H 	H 	0.6451	0.8552	0.9795	0.04
Mof_C 	C 	0.5926	0.8116	0.0311	0.015
Mof_H 	H 	0.5646	0.8527	0.0376	0.026
Mof_C 	C 	0.6267	0.8101	0.0465	0.007
Mof_H 	H 	0.622	0.8522	0.0635	0.018
Mof_C 	C 	0.6745	0.6914	0.012	-0.058
Mof_H 	H 	0.7025	0.6503	0.0055	0.038
Mof_O 	O 	0.0248	0.6821	0.92	-0.048
Mof_C 	C 	0.0202	0.6273	0.9459	0.645
Mof_C 	C 	0.9727	0.5722	0.9361	-0.215
Mof_H 	H 	0.9441	0.5748	0.9107	0.27
Mof_C 	C 	0.9671	0.5134	0.9635	1.12
Mof_H 	H 	0.9347	0.4758	0.9568	-0.472
Mof_N 	N 	0.009	0.9903	0.0007	-0.293
Mof_C 	C 	0.0564	0.9353	0.0105	0.136
Mof_H 	H 	0.085	0.5622	0.0359	-0.021
Mof_C 	C 	0.062	0.6235	0.983	-0.014
Mof_H 	H 	0.0944	0.6611	0.9897	0.044
Mof_C 	C 	0.0028	0.9517	0.9712	-0.215
Mof_C 	C 	0.0344	0.8868	0.9819	-0.073
Mof_H 	H 	0.054	0.3799	0.9899	0.009
Mof_C 	C 	0.0374	0.8318	0.9516	-0.742
Mof_H 	H 	0.059	0.2874	0.041	0.261
Mof_N 	N 	0.0088	0.8419	0.9105	-0.01
Mof_C 	C 	0.9771	0.9069	0.8997	-0.197
Mof_H 	H 	0.9575	0.4137	0.1284	0.079
Mof_C 	C 	0.9741	0.9618	0.93	-0.389
Mof_H 	H 	0.9525	0.0062	0.9227	0.104
Mof_O 	O 	0.3779	0.2484	0.3546	-0.123
Mof_C 	C 	0.2824	0.1941	0.3901	-0.174
Mof_H 	H 	0.2839	0.1547	0.3707	0.082
Mof_C 	C 	0.2322	0.1954	0.4233	0.101
Mof_H 	H 	0.1994	0.1569	0.4266	-0.015
Mof_N 	N 	0.2299	0.2531	0.4518	-0.066
Mof_C 	C 	0.2779	0.1905	0.4469	-0.039
Mof_H 	H 	0.2764	0.1511	0.4664	0.029
Mof_C 	C 	0.3281	0.3081	0.4137	-0.062
Mof_H 	H 	0.3609	0.3467	0.4104	0.046
Mof_C 	C 	0.1814	0.253	0.487	0.038
Mof_C 	C 	0.1404	0.3131	0.4966	-0.074
Mof_H 	H 	0.1451	0.3552	0.4795	0.041
Mof_C 	C 	0.0926	0.3116	0.5311	0.007
Mof_H 	H 	0.0646	0.3527	0.5376	0.016
Mof_C 	C 	0.1267	0.3101	0.5465	0.014
Mof_H 	H 	0.122	0.3522	0.5635	0.013
Mof_C 	C 	0.1745	0.1914	0.512	-0.046
Mof_H 	H 	0.2025	0.1503	0.5055	0.034
Mof_O 	O 	0.5248	0.1821	0.42	0.051
Mof_C 	C 	0.5202	0.1273	0.4459	0.475
Mof_C 	C 	0.4727	0.0722	0.4361	0.014
Mof_H 	H 	0.4441	0.0748	0.4107	0.14
Mof_C 	C 	0.4671	0.0134	0.4635	0.674
Mof_H 	H 	0.4347	0.9758	0.4568	-0.278
Mof_N 	N 	0.509	0.4903	0.5007	-0.066
Mof_C 	C 	0.5564	0.4353	0.5105	-0.157
Mof_H 	H 	0.585	0.0622	0.5359	0.158
Mof_C 	C 	0.562	0.1235	0.483	0.115
Mof_H 	H 	0.5944	0.1611	0.4897	-0.008
Mof_C 	C 	0.5028	0.4517	0.4712	-0.319
Mof_C 	C 	0.5344	0.3868	0.4819	-0.071
Mof_H 	H 	0.554	0.8799	0.4899	0.049
Mof_C 	C 	0.5374	0.3318	0.4516	-0.607
Mof_H 	H 	0.559	0.7874	0.541	0.223
Mof_N 	N 	0.5088	0.3419	0.4105	-0.091
Mof_C 	C 	0.4771	0.4069	0.3997	-0.114
Mof_H 	H 	0.4575	0.9137	0.6284	0.055
Mof_C 	C 	0.4741	0.4618	0.43	-0.341
Mof_H 	H 	0.4525	0.5062	0.4227	0.095
Mof_O 	O 	0.6221	0.2516	0.3546	-0.122
Mof_C 	C 	0.7176	0.3059	0.3901	-0.17
Mof_H 	H 	0.7161	0.3453	0.3707	0.083
Mof_C 	C 	0.7678	0.3046	0.4233	0.102
Mof_H 	H 	0.8006	0.3431	0.4266	-0.01
Mof_N 	N 	0.7701	0.2469	0.4518	-0.066
Mof_C 	C 	0.7221	0.3095	0.4469	-0.039
Mof_H 	H 	0.7236	0.3489	0.4664	0.029
Mof_C 	C 	0.6719	0.1919	0.4137	-0.064
Mof_H 	H 	0.6391	0.1533	0.4104	0.047
Mof_C 	C 	0.8186	0.247	0.487	0.04
Mof_C 	C 	0.8596	0.1869	0.4966	-0.042
Mof_H 	H 	0.8549	0.1448	0.4795	0.04
Mof_C 	C 	0.9074	0.1884	0.5311	0.032
Mof_H 	H 	0.9354	0.1473	0.5376	0.035
Mof_C 	C 	0.8733	0.1899	0.5465	-0.01
Mof_H 	H 	0.878	0.1478	0.5635	0.028
Mof_C 	C 	0.8255	0.3086	0.512	-0.071
Mof_H 	H 	0.7975	0.3497	0.5055	0.043
Mof_O 	O 	0.4752	0.3179	0.42	0.051
Mof_C 	C 	0.4798	0.3727	0.4459	0.475
Mof_C 	C 	0.5273	0.4278	0.4361	0.014
Mof_H 	H 	0.5559	0.4252	0.4107	0.14
Mof_C 	C 	0.5329	0.4866	0.4635	0.675
Mof_H 	H 	0.5653	0.5242	0.4568	-0.279
Mof_N 	N 	0.491	0.0097	0.5007	-0.067
Mof_C 	C 	0.4436	0.0647	0.5105	-0.157
Mof_H 	H 	0.415	0.4378	0.5359	0.157
Mof_C 	C 	0.438	0.3765	0.483	0.115
Mof_H 	H 	0.4056	0.3389	0.4897	-0.008
Mof_C 	C 	0.4972	0.0483	0.4712	-0.319
Mof_C 	C 	0.4656	0.1132	0.4819	-0.071
Mof_H 	H 	0.446	0.6201	0.4899	0.049
Mof_C 	C 	0.4626	0.1682	0.4516	-0.607
Mof_H 	H 	0.441	0.7126	0.541	0.223
Mof_N 	N 	0.4912	0.1581	0.4105	-0.091
Mof_C 	C 	0.5229	0.0931	0.3997	-0.114
Mof_H 	H 	0.5425	0.5863	0.6284	0.055
Mof_C 	C 	0.5259	0.0382	0.43	-0.341
Mof_H 	H 	0.5475	0.9938	0.4227	0.095
Mof_O 	O 	0.1221	0.7516	0.8546	-0.121
Mof_C 	C 	0.2176	0.8059	0.8901	-0.166
Mof_H 	H 	0.2161	0.8453	0.8707	0.081
Mof_C 	C 	0.2678	0.8046	0.9233	0.098
Mof_H 	H 	0.3006	0.8431	0.9266	-0.011
Mof_N 	N 	0.2701	0.7469	0.9518	-0.066
Mof_C 	C 	0.2221	0.8095	0.9469	-0.035
Mof_H 	H 	0.2236	0.8489	0.9664	0.028
Mof_C 	C 	0.1719	0.6919	0.9137	-0.072
Mof_H 	H 	0.1391	0.6533	0.9104	0.056
Mof_C 	C 	0.3186	0.747	0.987	0.039
Mof_C 	C 	0.3596	0.6869	0.9966	-0.058
Mof_H 	H 	0.3549	0.6448	0.9795	0.041
Mof_C 	C 	0.4074	0.6884	0.0311	0.019
Mof_H 	H 	0.4354	0.6473	0.0376	0.025
Mof_C 	C 	0.3733	0.6899	0.0465	0.003
Mof_H 	H 	0.378	0.6478	0.0635	0.019
Mof_C 	C 	0.3255	0.8086	0.012	-0.058
Mof_H 	H 	0.2975	0.8497	0.0055	0.039
Mof_O 	O 	0.9752	0.8179	0.92	0.154
Mof_C 	C 	0.9798	0.8727	0.9459	0.297
Mof_C 	C 	0.0273	0.9278	0.9361	0.24
Mof_H 	H 	0.0559	0.9252	0.9107	0.011
Mof_C 	C 	0.0329	0.9866	0.9635	0.215
Mof_H 	H 	0.0653	0.0242	0.9568	-0.079
Mof_N 	N 	0.991	0.5097	0.0007	0.168
Mof_C 	C 	0.9436	0.5647	0.0105	-0.453
Mof_H 	H 	0.915	0.9378	0.0359	0.328
Mof_C 	C 	0.938	0.8765	0.983	0.237
Mof_H 	H 	0.9056	0.8389	0.9897	-0.058
Mof_C 	C 	0.9972	0.5483	0.9712	-0.411
Mof_C 	C 	0.9656	0.6132	0.9819	-0.071
Mof_H 	H 	0.946	0.1201	0.9899	0.091
Mof_C 	C 	0.9626	0.6682	0.9516	-0.457
Mof_H 	H 	0.941	0.2126	0.041	0.182
Mof_N 	N 	0.9912	0.6581	0.9105	-0.172
Mof_C 	C 	0.0229	0.5931	0.8997	-0.03
Mof_H 	H 	0.0425	0.0863	0.1284	0.035
Mof_C 	C 	0.0259	0.5382	0.93	-0.288
Mof_H 	H 	0.0475	0.4938	0.9227	0.085
Mof_O 	O 	0.0016	0.3721	0.6046	0.018
Mof_C 	C 	0.0559	0.4676	0.6401	-0.162
Mof_H 	H 	0.0953	0.4661	0.6207	0.074
Mof_C 	C 	0.0546	0.5178	0.6733	0.081
Mof_H 	H 	0.0931	0.5506	0.6766	-0.011
Mof_N 	N 	0.9969	0.5201	0.7018	-0.162
Mof_C 	C 	0.0595	0.4721	0.6969	-0.093
Mof_H 	H 	0.0989	0.4736	0.7164	0.043
Mof_C 	C 	0.9419	0.4219	0.6637	-0.03
Mof_H 	H 	0.9033	0.3891	0.6604	0.04
Mof_C 	C 	0.997	0.5686	0.737	-0.099
Mof_C 	C 	0.9369	0.6096	0.7466	-0.049
Mof_H 	H 	0.8948	0.6049	0.7295	0.041
Mof_C 	C 	0.9384	0.6574	0.7811	0.024
Mof_H 	H 	0.8973	0.6854	0.7876	0.029
Mof_C 	C 	0.9399	0.6233	0.7965	0.039
Mof_H 	H 	0.8978	0.628	0.8135	0.01
Mof_C 	C 	0.0586	0.5755	0.762	-0.089
Mof_H 	H 	0.0997	0.5475	0.7555	0.044
Mof_O 	O 	0.0679	0.2252	0.67	0.042
Mof_C 	C 	0.1227	0.2298	0.6959	0.483
Mof_C 	C 	0.1778	0.2773	0.6861	-0.002
Mof_H 	H 	0.1752	0.3059	0.6607	0.143
Mof_C 	C 	0.2366	0.2829	0.7135	0.694
Mof_H 	H 	0.2742	0.3153	0.7068	-0.286
Mof_N 	N 	0.7597	0.241	0.7507	-0.121
Mof_C 	C 	0.8147	0.1936	0.7605	-0.133
Mof_H 	H 	0.1878	0.165	0.7859	0.164
Mof_C 	C 	0.1265	0.188	0.733	0.121
Mof_H 	H 	0.0889	0.1556	0.7397	-0.017
Mof_C 	C 	0.7983	0.2472	0.7212	-0.288
Mof_C 	C 	0.8632	0.2156	0.7319	-0.074
Mof_H 	H 	0.3701	0.196	0.7399	0.045
Mof_C 	C 	0.9182	0.2126	0.7016	-0.599
Mof_H 	H 	0.4626	0.191	0.791	0.234
Mof_N 	N 	0.9081	0.2412	0.6605	-0.097
Mof_C 	C 	0.8431	0.2729	0.6497	-0.111
Mof_H 	H 	0.3363	0.2925	0.8784	0.054
Mof_C 	C 	0.7882	0.2759	0.68	-0.359
Mof_H 	H 	0.7438	0.2975	0.6727	0.103
Mof_O 	O 	0.5016	0.8721	0.1046	-0.122
Mof_C 	C 	0.5559	0.9676	0.1401	-0.164
Mof_H 	H 	0.5953	0.9661	0.1207	0.08
Mof_C 	C 	0.5546	0.0178	0.1733	0.093
Mof_H 	H 	0.5931	0.0506	0.1766	-0.01
Mof_N 	N 	0.4969	0.0201	0.2018	-0.066
Mof_C 	C 	0.5595	0.9721	0.1969	-0.03
Mof_H 	H 	0.5989	0.9736	0.2164	0.027
Mof_C 	C 	0.4419	0.9219	0.1637	-0.072
Mof_H 	H 	0.4033	0.8891	0.1604	0.049
Mof_C 	C 	0.497	0.0686	0.237	0.039
Mof_C 	C 	0.4369	0.1096	0.2466	-0.058
Mof_H 	H 	0.3948	0.1049	0.2295	0.04
Mof_C 	C 	0.4384	0.1574	0.2811	0.02
Mof_H 	H 	0.3973	0.1854	0.2876	0.024
Mof_C 	C 	0.4399	0.1233	0.2965	0.002
Mof_H 	H 	0.3978	0.128	0.3135	0.019
Mof_C 	C 	0.5586	0.0755	0.262	-0.058
Mof_H 	H 	0.5997	0.0475	0.2555	0.038
Mof_O 	O 	0.5679	0.7252	0.17	0.02
Mof_C 	C 	0.6227	0.7298	0.1959	0.45
Mof_C 	C 	0.6778	0.7773	0.1861	0
Mof_H 	H 	0.6752	0.8059	0.1607	0.14
Mof_C 	C 	0.7366	0.7829	0.2135	0.631
Mof_H 	H 	0.7742	0.8153	0.2068	-0.257
Mof_N 	N 	0.2597	0.741	0.2507	-0.104
Mof_C 	C 	0.3147	0.6936	0.2605	-0.145
Mof_H 	H 	0.6878	0.665	0.2859	0.158
Mof_C 	C 	0.6265	0.688	0.233	0.117
Mof_H 	H 	0.5889	0.6556	0.2397	-0.011
Mof_C 	C 	0.2983	0.7472	0.2212	-0.329
Mof_C 	C 	0.3632	0.7156	0.2319	-0.067
Mof_H 	H 	0.8701	0.696	0.2399	0.052
Mof_C 	C 	0.4182	0.7126	0.2016	-0.637
Mof_H 	H 	0.9626	0.691	0.291	0.239
Mof_N 	N 	0.4081	0.7412	0.1605	-0.103
Mof_C 	C 	0.3431	0.7729	0.1497	-0.111
Mof_H 	H 	0.8363	0.7925	0.3784	0.057
Mof_C 	C 	0.2882	0.7759	0.18	-0.362
Mof_H 	H 	0.2438	0.7975	0.1727	0.1
Mof_O 	O 	0.4984	0.6279	0.1046	-0.122
Mof_C 	C 	0.4441	0.5324	0.1401	-0.173
Mof_H 	H 	0.4047	0.5339	0.1207	0.083
Mof_C 	C 	0.4454	0.4822	0.1733	0.103
Mof_H 	H 	0.4069	0.4494	0.1766	-0.013
Mof_N 	N 	0.5031	0.4799	0.2018	-0.066
Mof_C 	C 	0.4405	0.5279	0.1969	-0.04
Mof_H 	H 	0.4011	0.5264	0.2164	0.029
Mof_C 	C 	0.5581	0.5781	0.1637	-0.062
Mof_H 	H 	0.5967	0.6109	0.1604	0.047
Mof_C 	C 	0.503	0.4314	0.237	0.039
Mof_C 	C 	0.5631	0.3904	0.2466	-0.059
Mof_H 	H 	0.6052	0.3951	0.2295	0.041
Mof_C 	C 	0.5616	0.3426	0.2811	0.019
Mof_H 	H 	0.6027	0.3146	0.2876	0.025
Mof_C 	C 	0.5601	0.3767	0.2965	0.003
Mof_H 	H 	0.6022	0.372	0.3135	0.019
Mof_C 	C 	0.4414	0.4245	0.262	-0.058
Mof_H 	H 	0.4003	0.4525	0.2555	0.038
Mof_O 	O 	0.4321	0.7748	0.17	0.071
Mof_C 	C 	0.3773	0.7702	0.1959	0.488
Mof_C 	C 	0.3222	0.7227	0.1861	0.024
Mof_H 	H 	0.3248	0.6941	0.1607	0.14
Mof_C 	C 	0.2634	0.7171	0.2135	0.698
Mof_H 	H 	0.2258	0.6847	0.2068	-0.29
Mof_N 	N 	0.7403	0.759	0.2507	-0.008
Mof_C 	C 	0.6853	0.8064	0.2605	-0.175
Mof_H 	H 	0.3122	0.835	0.2859	0.156
Mof_C 	C 	0.3735	0.812	0.233	0.113
Mof_H 	H 	0.4111	0.8444	0.2397	-0.006
Mof_C 	C 	0.7017	0.7528	0.2212	-0.299
Mof_C 	C 	0.6368	0.7844	0.2319	-0.079
Mof_H 	H 	0.1299	0.804	0.2399	0.046
Mof_C 	C 	0.5818	0.7874	0.2016	-0.556
Mof_H 	H 	0.0374	0.809	0.291	0.206
Mof_N 	N 	0.5919	0.7588	0.1605	-0.072
Mof_C 	C 	0.6569	0.7271	0.1497	-0.119
Mof_H 	H 	0.1637	0.7075	0.3784	0.054
Mof_C 	C 	0.7118	0.7241	0.18	-0.308
Mof_H 	H 	0.7562	0.7025	0.1727	0.087
Mof_O 	O 	0.9984	0.1279	0.6046	-0.22
Mof_C 	C 	0.9441	0.0324	0.6401	-0.088
Mof_H 	H 	0.9047	0.0339	0.6207	0.061
Mof_C 	C 	0.9454	0.9822	0.6733	0.088
Mof_H 	H 	0.9069	0.9494	0.6766	-0.002
Mof_N 	N 	0.0031	0.9799	0.7018	0.037
Mof_C 	C 	0.9405	0.0279	0.6969	-0.016
Mof_H 	H 	0.9011	0.0264	0.7164	0.025
Mof_C 	C 	0.0581	0.0781	0.6637	-0.012
Mof_H 	H 	0.0967	0.1109	0.6604	0.028
Mof_C 	C 	0.003	0.9314	0.737	0.18
Mof_C 	C 	0.0631	0.8904	0.7466	-0.073
Mof_H 	H 	0.1052	0.8951	0.7295	0.042
Mof_C 	C 	0.0616	0.8426	0.7811	0.037
Mof_H 	H 	0.1027	0.8146	0.7876	0.018
Mof_C 	C 	0.0601	0.8767	0.7965	-0.01
Mof_H 	H 	0.1022	0.872	0.8135	0.023
Mof_C 	C 	0.9414	0.9245	0.762	-0.039
Mof_H 	H 	0.9003	0.9525	0.7555	0.035
Mof_O 	O 	0.9321	0.2748	0.67	0.071
Mof_C 	C 	0.8773	0.2702	0.6959	0.458
Mof_C 	C 	0.8222	0.2227	0.6861	0.036
Mof_H 	H 	0.8248	0.1941	0.6607	0.137
Mof_C 	C 	0.7634	0.2171	0.7135	0.637
Mof_H 	H 	0.7258	0.1847	0.7068	-0.264
Mof_N 	N 	0.2403	0.259	0.7507	-0.03
Mof_C 	C 	0.1853	0.3064	0.7605	-0.172
Mof_H 	H 	0.8122	0.335	0.7859	0.145
Mof_C 	C 	0.8735	0.312	0.733	0.101
Mof_H 	H 	0.9111	0.3444	0.7397	0.003
Mof_C 	C 	0.2017	0.2528	0.7212	-0.336
Mof_C 	C 	0.1368	0.2844	0.7319	-0.067
Mof_H 	H 	0.6299	0.304	0.7399	0.056
Mof_C 	C 	0.0818	0.2874	0.7016	-0.609
Mof_H 	H 	0.5374	0.309	0.791	0.206
Mof_N 	N 	0.0919	0.2588	0.6605	-0.087
Mof_C 	C 	0.1569	0.2271	0.6497	-0.116
Mof_H 	H 	0.6637	0.2075	0.8784	0.056
Mof_C 	C 	0.2118	0.2241	0.68	-0.326
Mof_H 	H 	0.2562	0.2025	0.6727	0.088
Mof_O 	O 	0.3779	0.2516	0.3546	-0.123
Mof_C 	C 	0.2824	0.3059	0.3901	-0.174
Mof_H 	H 	0.2839	0.3453	0.3707	0.082
Mof_C 	C 	0.2322	0.3046	0.4233	0.101
Mof_H 	H 	0.1994	0.3431	0.4266	-0.015
Mof_N 	N 	0.2299	0.2469	0.4518	-0.066
Mof_C 	C 	0.2779	0.3095	0.4469	-0.039
Mof_H 	H 	0.2764	0.3489	0.4664	0.029
Mof_C 	C 	0.3281	0.1919	0.4137	-0.062
Mof_H 	H 	0.3609	0.1533	0.4104	0.046
Mof_C 	C 	0.1814	0.247	0.487	0.038
Mof_C 	C 	0.1404	0.1869	0.4966	-0.074
Mof_H 	H 	0.1451	0.1448	0.4795	0.041
Mof_C 	C 	0.0926	0.1884	0.5311	0.007
Mof_H 	H 	0.0646	0.1473	0.5376	0.016
Mof_C 	C 	0.1267	0.1899	0.5465	0.014
Mof_H 	H 	0.122	0.1478	0.5635	0.014
Mof_C 	C 	0.1745	0.3086	0.512	-0.046
Mof_H 	H 	0.2025	0.3497	0.5055	0.034
Mof_O 	O 	0.5248	0.3179	0.42	0.051
Mof_C 	C 	0.5202	0.3727	0.4459	0.475
Mof_C 	C 	0.4727	0.4278	0.4361	0.014
Mof_H 	H 	0.4441	0.4252	0.4107	0.14
Mof_C 	C 	0.4671	0.4866	0.4635	0.674
Mof_H 	H 	0.4347	0.5242	0.4568	-0.278
Mof_N 	N 	0.509	0.0097	0.5007	-0.066
Mof_C 	C 	0.5564	0.0647	0.5105	-0.157
Mof_H 	H 	0.585	0.4378	0.5359	0.158
Mof_C 	C 	0.562	0.3765	0.483	0.115
Mof_H 	H 	0.5944	0.3389	0.4897	-0.008
Mof_C 	C 	0.5028	0.0483	0.4712	-0.319
Mof_C 	C 	0.5344	0.1132	0.4819	-0.071
Mof_H 	H 	0.554	0.6201	0.4899	0.049
Mof_C 	C 	0.5374	0.1682	0.4516	-0.607
Mof_H 	H 	0.559	0.7126	0.541	0.223
Mof_N 	N 	0.5088	0.1581	0.4105	-0.091
Mof_C 	C 	0.4771	0.0931	0.3997	-0.114
Mof_H 	H 	0.4575	0.5863	0.6284	0.055
Mof_C 	C 	0.4741	0.0382	0.43	-0.341
Mof_H 	H 	0.4525	0.9938	0.4227	0.095
Mof_O 	O 	0.8779	0.7516	0.8546	-0.117
Mof_C 	C 	0.7824	0.8059	0.8901	-0.182
Mof_H 	H 	0.7839	0.8453	0.8707	0.086
Mof_C 	C 	0.7322	0.8046	0.9233	0.111
Mof_H 	H 	0.6994	0.8431	0.9266	-0.016
Mof_N 	N 	0.7299	0.7469	0.9518	-0.066
Mof_C 	C 	0.7779	0.8095	0.9469	-0.049
Mof_H 	H 	0.7764	0.8489	0.9664	0.032
Mof_C 	C 	0.8281	0.6919	0.9137	-0.047
Mof_H 	H 	0.8609	0.6533	0.9104	0.036
Mof_C 	C 	0.6814	0.747	0.987	0.039
Mof_C 	C 	0.6404	0.6869	0.9966	-0.058
Mof_H 	H 	0.6451	0.6448	0.9795	0.04
Mof_C 	C 	0.5926	0.6884	0.0311	0.016
Mof_H 	H 	0.5646	0.6473	0.0376	0.026
Mof_C 	C 	0.6267	0.6899	0.0465	0.006
Mof_H 	H 	0.622	0.6478	0.0635	0.018
Mof_C 	C 	0.6745	0.8086	0.012	-0.057
Mof_H 	H 	0.7025	0.8497	0.0055	0.038
Mof_O 	O 	0.0248	0.8179	0.92	-0.046
Mof_C 	C 	0.0202	0.8727	0.9459	0.645
Mof_C 	C 	0.9727	0.9278	0.9361	-0.208
Mof_H 	H 	0.9441	0.9252	0.9107	0.268
Mof_C 	C 	0.9671	0.9866	0.9635	1.112
Mof_H 	H 	0.9347	0.0242	0.9568	-0.468
Mof_N 	N 	0.009	0.5097	0.0007	-0.299
Mof_C 	C 	0.0564	0.5647	0.0105	0.142
Mof_H 	H 	0.085	0.9378	0.0359	-0.018
Mof_C 	C 	0.062	0.8765	0.983	-0.013
Mof_H 	H 	0.0944	0.8389	0.9897	0.043
Mof_C 	C 	0.0028	0.5483	0.9712	-0.212
Mof_C 	C 	0.0344	0.6132	0.9819	-0.073
Mof_H 	H 	0.054	0.1201	0.9899	0.01
Mof_C 	C 	0.0374	0.6682	0.9516	-0.741
Mof_H 	H 	0.059	0.2126	0.041	0.262
Mof_N 	N 	0.0088	0.6581	0.9105	-0.007
Mof_C 	C 	0.9771	0.5931	0.8997	-0.198
Mof_H 	H 	0.9575	0.0863	0.1284	0.078
Mof_C 	C 	0.9741	0.5382	0.93	-0.388
Mof_H 	H 	0.9525	0.4938	0.9227	0.103
Mof_O 	O 	0.1221	0.7484	0.8546	-0.121
Mof_C 	C 	0.2176	0.6941	0.8901	-0.166
Mof_H 	H 	0.2161	0.6547	0.8707	0.081
Mof_C 	C 	0.2678	0.6954	0.9233	0.098
Mof_H 	H 	0.3006	0.6569	0.9266	-0.011
Mof_N 	N 	0.2701	0.7531	0.9518	-0.066
Mof_C 	C 	0.2221	0.6905	0.9469	-0.035
Mof_H 	H 	0.2236	0.6511	0.9664	0.028
Mof_C 	C 	0.1719	0.8081	0.9137	-0.072
Mof_H 	H 	0.1391	0.8467	0.9104	0.056
Mof_C 	C 	0.3186	0.753	0.987	0.039
Mof_C 	C 	0.3596	0.8131	0.9966	-0.058
Mof_H 	H 	0.3549	0.8552	0.9795	0.041
Mof_C 	C 	0.4074	0.8116	0.0311	0.018
Mof_H 	H 	0.4354	0.8527	0.0376	0.025
Mof_C 	C 	0.3733	0.8101	0.0465	0.004
Mof_H 	H 	0.378	0.8522	0.0635	0.019
Mof_C 	C 	0.3255	0.6914	0.012	-0.059
Mof_H 	H 	0.2975	0.6503	0.0055	0.039
Mof_O 	O 	0.9752	0.6821	0.92	0.151
Mof_C 	C 	0.9798	0.6273	0.9459	0.292
Mof_C 	C 	0.0273	0.5722	0.9361	0.244
Mof_H 	H 	0.0559	0.5748	0.9107	0.009
Mof_C 	C 	0.0329	0.5134	0.9635	0.205
Mof_H 	H 	0.0653	0.4758	0.9568	-0.074
Mof_N 	N 	0.991	0.9903	0.0007	0.162
Mof_C 	C 	0.9436	0.9353	0.0105	-0.446
Mof_H 	H 	0.915	0.5622	0.0359	0.332
Mof_C 	C 	0.938	0.6235	0.983	0.24
Mof_H 	H 	0.9056	0.6611	0.9897	-0.059
Mof_C 	C 	0.9972	0.9517	0.9712	-0.411
Mof_C 	C 	0.9656	0.8868	0.9819	-0.071
Mof_H 	H 	0.946	0.3799	0.9899	0.092
Mof_C 	C 	0.9626	0.8318	0.9516	-0.465
Mof_H 	H 	0.941	0.2874	0.041	0.179
Mof_N 	N 	0.9912	0.8419	0.9105	-0.172
Mof_C 	C 	0.0229	0.9069	0.8997	-0.031
Mof_H 	H 	0.0425	0.4137	0.1284	0.035
Mof_C 	C 	0.0259	0.9618	0.93	-0.292
Mof_H 	H 	0.0475	0.0062	0.9227	0.087
Mof_O 	O 	0.6221	0.2484	0.3546	-0.122
Mof_C 	C 	0.7176	0.1941	0.3901	-0.17
Mof_H 	H 	0.7161	0.1547	0.3707	0.083
Mof_C 	C 	0.7678	0.1954	0.4233	0.102
Mof_H 	H 	0.8006	0.1569	0.4266	-0.01
Mof_N 	N 	0.7701	0.2531	0.4518	-0.066
Mof_C 	C 	0.7221	0.1905	0.4469	-0.039
Mof_H 	H 	0.7236	0.1511	0.4664	0.029
Mof_C 	C 	0.6719	0.3081	0.4137	-0.064
Mof_H 	H 	0.6391	0.3467	0.4104	0.047
Mof_C 	C 	0.8186	0.253	0.487	0.04
Mof_C 	C 	0.8596	0.3131	0.4966	-0.042
Mof_H 	H 	0.8549	0.3552	0.4795	0.04
Mof_C 	C 	0.9074	0.3116	0.5311	0.032
Mof_H 	H 	0.9354	0.3527	0.5376	0.035
Mof_C 	C 	0.8733	0.3101	0.5465	-0.01
Mof_H 	H 	0.878	0.3522	0.5635	0.028
Mof_C 	C 	0.8255	0.1914	0.512	-0.071
Mof_H 	H 	0.7975	0.1503	0.5055	0.043
Mof_O 	O 	0.4752	0.1821	0.42	0.051
Mof_C 	C 	0.4798	0.1273	0.4459	0.475
Mof_C 	C 	0.5273	0.0722	0.4361	0.014
Mof_H 	H 	0.5559	0.0748	0.4107	0.14
Mof_C 	C 	0.5329	0.0134	0.4635	0.675
Mof_H 	H 	0.5653	0.9758	0.4568	-0.278
Mof_N 	N 	0.491	0.4903	0.5007	-0.067
Mof_C 	C 	0.4436	0.4353	0.5105	-0.157
Mof_H 	H 	0.415	0.0622	0.5359	0.157
Mof_C 	C 	0.438	0.1235	0.483	0.115
Mof_H 	H 	0.4056	0.1611	0.4897	-0.008
Mof_C 	C 	0.4972	0.4517	0.4712	-0.319
Mof_C 	C 	0.4656	0.3868	0.4819	-0.072
Mof_H 	H 	0.446	0.8799	0.4899	0.049
Mof_C 	C 	0.4626	0.3318	0.4516	-0.607
Mof_H 	H 	0.441	0.7874	0.541	0.223
Mof_N 	N 	0.4912	0.3419	0.4105	-0.091
Mof_C 	C 	0.5229	0.4069	0.3997	-0.114
Mof_H 	H 	0.5425	0.9137	0.6284	0.055
Mof_C 	C 	0.5259	0.4618	0.43	-0.341
Mof_H 	H 	0.5475	0.5062	0.4227	0.095
Mof_O 	O 	0.4984	0.3721	0.8954	-0.122
Mof_C 	C 	0.4441	0.4676	0.8599	-0.173
Mof_H 	H 	0.4047	0.4661	0.8793	0.083
Mof_C 	C 	0.4454	0.5178	0.8267	0.103
Mof_H 	H 	0.4069	0.5506	0.8234	-0.013
Mof_N 	N 	0.5031	0.5201	0.7982	-0.066
Mof_C 	C 	0.4405	0.4721	0.8031	-0.04
Mof_H 	H 	0.4011	0.4736	0.7836	0.029
Mof_C 	C 	0.5581	0.4219	0.8363	-0.062
Mof_H 	H 	0.5967	0.3891	0.8396	0.047
Mof_C 	C 	0.503	0.5686	0.763	0.039
Mof_C 	C 	0.5631	0.6096	0.7534	-0.059
Mof_H 	H 	0.6052	0.6049	0.7705	0.041
Mof_C 	C 	0.5616	0.6574	0.7189	0.019
Mof_H 	H 	0.6027	0.6854	0.7124	0.025
Mof_C 	C 	0.5601	0.6233	0.7035	0.003
Mof_H 	H 	0.6022	0.628	0.6865	0.019
Mof_C 	C 	0.4414	0.5755	0.738	-0.058
Mof_H 	H 	0.4003	0.5475	0.7445	0.038
Mof_O 	O 	0.4321	0.2252	0.83	0.071
Mof_C 	C 	0.3773	0.2298	0.8041	0.488
Mof_C 	C 	0.3222	0.2773	0.8139	0.024
Mof_H 	H 	0.3248	0.3059	0.8393	0.14
Mof_C 	C 	0.2634	0.2829	0.7865	0.698
Mof_H 	H 	0.2258	0.3153	0.7932	-0.29
Mof_N 	N 	0.7403	0.241	0.7493	-0.008
Mof_C 	C 	0.6853	0.1936	0.7395	-0.175
Mof_H 	H 	0.3122	0.165	0.7141	0.156
Mof_C 	C 	0.3735	0.188	0.767	0.113
Mof_H 	H 	0.4111	0.1556	0.7603	-0.006
Mof_C 	C 	0.7017	0.2472	0.7788	-0.299
Mof_C 	C 	0.6368	0.2156	0.7681	-0.079
Mof_H 	H 	0.1299	0.196	0.7601	0.046
Mof_C 	C 	0.5818	0.2126	0.7984	-0.556
Mof_H 	H 	0.0374	0.191	0.709	0.206
Mof_N 	N 	0.5919	0.2412	0.8395	-0.072
Mof_C 	C 	0.6569	0.2729	0.8503	-0.119
Mof_H 	H 	0.1637	0.2925	0.6216	0.054
Mof_C 	C 	0.7118	0.2759	0.82	-0.308
Mof_H 	H 	0.7562	0.2975	0.8273	0.087
Mof_O 	O 	0.9984	0.8721	0.3954	-0.22
Mof_C 	C 	0.9441	0.9676	0.3599	-0.088
Mof_H 	H 	0.9047	0.9661	0.3793	0.061
Mof_C 	C 	0.9454	0.0178	0.3267	0.088
Mof_H 	H 	0.9069	0.0506	0.3234	-0.002
Mof_N 	N 	0.0031	0.0201	0.2982	0.037
Mof_C 	C 	0.9405	0.9721	0.3031	-0.016
Mof_H 	H 	0.9011	0.9736	0.2836	0.025
Mof_C 	C 	0.0581	0.9219	0.3363	-0.012
Mof_H 	H 	0.0967	0.8891	0.3396	0.028
Mof_C 	C 	0.003	0.0686	0.263	0.18
Mof_C 	C 	0.0631	0.1096	0.2534	-0.073
Mof_H 	H 	0.1052	0.1049	0.2705	0.042
Mof_C 	C 	0.0616	0.1574	0.2189	0.037
Mof_H 	H 	0.1027	0.1854	0.2124	0.018
Mof_C 	C 	0.0601	0.1233	0.2035	-0.01
Mof_H 	H 	0.1022	0.128	0.1865	0.023
Mof_C 	C 	0.9414	0.0755	0.238	-0.039
Mof_H 	H 	0.9003	0.0475	0.2445	0.035
Mof_O 	O 	0.9321	0.7252	0.33	0.071
Mof_C 	C 	0.8773	0.7298	0.3041	0.458
Mof_C 	C 	0.8222	0.7773	0.3139	0.036
Mof_H 	H 	0.8248	0.8059	0.3393	0.137
Mof_C 	C 	0.7634	0.7829	0.2865	0.637
Mof_H 	H 	0.7258	0.8153	0.2932	-0.264
Mof_N 	N 	0.2403	0.741	0.2493	-0.03
Mof_C 	C 	0.1853	0.6936	0.2395	-0.172
Mof_H 	H 	0.8122	0.665	0.2141	0.145
Mof_C 	C 	0.8735	0.688	0.267	0.101
Mof_H 	H 	0.9111	0.6556	0.2603	0.003
Mof_C 	C 	0.2017	0.7472	0.2788	-0.336
Mof_C 	C 	0.1368	0.7156	0.2681	-0.067
Mof_H 	H 	0.6299	0.696	0.2601	0.056
Mof_C 	C 	0.0818	0.7126	0.2984	-0.609
Mof_H 	H 	0.5374	0.691	0.209	0.206
Mof_N 	N 	0.0919	0.7412	0.3395	-0.087
Mof_C 	C 	0.1569	0.7729	0.3503	-0.116
Mof_H 	H 	0.6637	0.7925	0.1216	0.056
Mof_C 	C 	0.2118	0.7759	0.32	-0.326
Mof_H 	H 	0.2562	0.7975	0.3273	0.088
Mof_O 	O 	0.0016	0.6279	0.3954	0.018
Mof_C 	C 	0.0559	0.5324	0.3599	-0.162
Mof_H 	H 	0.0953	0.5339	0.3793	0.074
Mof_C 	C 	0.0546	0.4822	0.3267	0.081
Mof_H 	H 	0.0931	0.4494	0.3234	-0.011
Mof_N 	N 	0.9969	0.4799	0.2982	-0.162
Mof_C 	C 	0.0595	0.5279	0.3031	-0.093
Mof_H 	H 	0.0989	0.5264	0.2836	0.043
Mof_C 	C 	0.9419	0.5781	0.3363	-0.03
Mof_H 	H 	0.9033	0.6109	0.3396	0.04
Mof_C 	C 	0.997	0.4314	0.263	-0.099
Mof_C 	C 	0.9369	0.3904	0.2534	-0.049
Mof_H 	H 	0.8948	0.3951	0.2705	0.041
Mof_C 	C 	0.9384	0.3426	0.2189	0.024
Mof_H 	H 	0.8973	0.3146	0.2124	0.029
Mof_C 	C 	0.9399	0.3767	0.2035	0.039
Mof_H 	H 	0.8978	0.372	0.1865	0.01
Mof_C 	C 	0.0586	0.4245	0.238	-0.089
Mof_H 	H 	0.0997	0.4525	0.2445	0.044
Mof_O 	O 	0.0679	0.7748	0.33	0.042
Mof_C 	C 	0.1227	0.7702	0.3041	0.483
Mof_C 	C 	0.1778	0.7227	0.3139	-0.002
Mof_H 	H 	0.1752	0.6941	0.3393	0.143
Mof_C 	C 	0.2366	0.7171	0.2865	0.694
Mof_H 	H 	0.2742	0.6847	0.2932	-0.286
Mof_N 	N 	0.7597	0.759	0.2493	-0.121
Mof_C 	C 	0.8147	0.8064	0.2395	-0.133
Mof_H 	H 	0.1878	0.835	0.2141	0.164
Mof_C 	C 	0.1265	0.812	0.267	0.121
Mof_H 	H 	0.0889	0.8444	0.2603	-0.017
Mof_C 	C 	0.7983	0.7528	0.2788	-0.288
Mof_C 	C 	0.8632	0.7844	0.2681	-0.074
Mof_H 	H 	0.3701	0.804	0.2601	0.045
Mof_C 	C 	0.9182	0.7874	0.2984	-0.599
Mof_H 	H 	0.4626	0.809	0.209	0.234
Mof_N 	N 	0.9081	0.7588	0.3395	-0.097
Mof_C 	C 	0.8431	0.7271	0.3503	-0.111
Mof_H 	H 	0.3363	0.7075	0.1216	0.054
Mof_C 	C 	0.7882	0.7241	0.32	-0.359
Mof_H 	H 	0.7438	0.7025	0.3273	0.103
Mof_O 	O 	0.5016	0.1279	0.8954	-0.122
Mof_C 	C 	0.5559	0.0324	0.8599	-0.164
Mof_H 	H 	0.5953	0.0339	0.8793	0.08
Mof_C 	C 	0.5546	0.9822	0.8267	0.093
Mof_H 	H 	0.5931	0.9494	0.8234	-0.01
Mof_N 	N 	0.4969	0.9799	0.7982	-0.066
Mof_C 	C 	0.5595	0.0279	0.8031	-0.03
Mof_H 	H 	0.5989	0.0264	0.7836	0.027
Mof_C 	C 	0.4419	0.0781	0.8363	-0.072
Mof_H 	H 	0.4033	0.1109	0.8396	0.049
Mof_C 	C 	0.497	0.9314	0.763	0.039
Mof_C 	C 	0.4369	0.8904	0.7534	-0.058
Mof_H 	H 	0.3948	0.8951	0.7705	0.04
Mof_C 	C 	0.4384	0.8426	0.7189	0.02
Mof_H 	H 	0.3973	0.8146	0.7124	0.024
Mof_C 	C 	0.4399	0.8767	0.7035	0.002
Mof_H 	H 	0.3978	0.872	0.6865	0.019
Mof_C 	C 	0.5586	0.9245	0.738	-0.058
Mof_H 	H 	0.5997	0.9525	0.7445	0.038
Mof_O 	O 	0.5679	0.2748	0.83	0.02
Mof_C 	C 	0.6227	0.2702	0.8041	0.45
Mof_C 	C 	0.6778	0.2227	0.8139	0
Mof_H 	H 	0.6752	0.1941	0.8393	0.14
Mof_C 	C 	0.7366	0.2171	0.7865	0.631
Mof_H 	H 	0.7742	0.1847	0.7932	-0.257
Mof_N 	N 	0.2597	0.259	0.7493	-0.104
Mof_C 	C 	0.3147	0.3064	0.7395	-0.145
Mof_H 	H 	0.6878	0.335	0.7141	0.158
Mof_C 	C 	0.6265	0.312	0.767	0.117
Mof_H 	H 	0.5889	0.3444	0.7603	-0.011
Mof_C 	C 	0.2983	0.2528	0.7788	-0.329
Mof_C 	C 	0.3632	0.2844	0.7681	-0.067
Mof_H 	H 	0.8701	0.304	0.7601	0.052
Mof_C 	C 	0.4182	0.2874	0.7984	-0.637
Mof_H 	H 	0.9626	0.309	0.709	0.239
Mof_N 	N 	0.4081	0.2588	0.8395	-0.103
Mof_C 	C 	0.3431	0.2271	0.8503	-0.111
Mof_H 	H 	0.8363	0.2075	0.6216	0.057
Mof_C 	C 	0.2882	0.2241	0.82	-0.362
Mof_H 	H 	0.2438	0.2025	0.8273	0.1
Mof_O 	O 	0.1221	0.2516	0.1454	-0.121
Mof_C 	C 	0.2176	0.3059	0.1099	-0.166
Mof_H 	H 	0.2161	0.3453	0.1293	0.081
Mof_C 	C 	0.2678	0.3046	0.0767	0.098
Mof_H 	H 	0.3006	0.3431	0.0734	-0.011
Mof_N 	N 	0.2701	0.2469	0.0482	-0.066
Mof_C 	C 	0.2221	0.3095	0.0531	-0.035
Mof_H 	H 	0.2236	0.3489	0.0336	0.028
Mof_C 	C 	0.1719	0.1919	0.0863	-0.072
Mof_H 	H 	0.1391	0.1533	0.0896	0.056
Mof_C 	C 	0.3186	0.247	0.013	0.039
Mof_C 	C 	0.3596	0.1869	0.0034	-0.058
Mof_H 	H 	0.3549	0.1448	0.0205	0.041
Mof_C 	C 	0.4074	0.1884	0.9689	0.018
Mof_H 	H 	0.4354	0.1473	0.9624	0.025
Mof_C 	C 	0.3733	0.1899	0.9535	0.004
Mof_H 	H 	0.378	0.1478	0.9365	0.019
Mof_C 	C 	0.3255	0.3086	0.988	-0.059
Mof_H 	H 	0.2975	0.3497	0.9945	0.039
Mof_O 	O 	0.9752	0.3179	0.08	0.151
Mof_C 	C 	0.9798	0.3727	0.0541	0.292
Mof_C 	C 	0.0273	0.4278	0.0639	0.244
Mof_H 	H 	0.0559	0.4252	0.0893	0.009
Mof_C 	C 	0.0329	0.4866	0.0365	0.205
Mof_H 	H 	0.0653	0.5242	0.0432	-0.074
Mof_N 	N 	0.991	0.0097	0.9993	0.162
Mof_C 	C 	0.9436	0.0647	0.9895	-0.446
Mof_H 	H 	0.915	0.4378	0.9641	0.332
Mof_C 	C 	0.938	0.3765	0.017	0.24
Mof_H 	H 	0.9056	0.3389	0.0103	-0.059
Mof_C 	C 	0.9972	0.0483	0.0288	-0.411
Mof_C 	C 	0.9656	0.1132	0.0181	-0.071
Mof_H 	H 	0.946	0.6201	0.0101	0.092
Mof_C 	C 	0.9626	0.1682	0.0484	-0.465
Mof_H 	H 	0.941	0.7126	0.959	0.179
Mof_N 	N 	0.9912	0.1581	0.0895	-0.172
Mof_C 	C 	0.0229	0.0931	0.1003	-0.031
Mof_H 	H 	0.0425	0.5863	0.8716	0.035
Mof_C 	C 	0.0259	0.0382	0.07	-0.292
Mof_H 	H 	0.0475	0.9938	0.0773	0.087
Mof_O 	O 	0.6221	0.7516	0.6454	-0.122
Mof_C 	C 	0.7176	0.8059	0.6099	-0.17
Mof_H 	H 	0.7161	0.8453	0.6293	0.083
Mof_C 	C 	0.7678	0.8046	0.5767	0.102
Mof_H 	H 	0.8006	0.8431	0.5734	-0.01
Mof_N 	N 	0.7701	0.7469	0.5482	-0.066
Mof_C 	C 	0.7221	0.8095	0.5531	-0.039
Mof_H 	H 	0.7236	0.8489	0.5336	0.029
Mof_C 	C 	0.6719	0.6919	0.5863	-0.064
Mof_H 	H 	0.6391	0.6533	0.5896	0.047
Mof_C 	C 	0.8186	0.747	0.513	0.04
Mof_C 	C 	0.8596	0.6869	0.5034	-0.042
Mof_H 	H 	0.8549	0.6448	0.5205	0.04
Mof_C 	C 	0.9074	0.6884	0.4689	0.032
Mof_H 	H 	0.9354	0.6473	0.4624	0.035
Mof_C 	C 	0.8733	0.6899	0.4535	-0.01
Mof_H 	H 	0.878	0.6478	0.4365	0.028
Mof_C 	C 	0.8255	0.8086	0.488	-0.071
Mof_H 	H 	0.7975	0.8497	0.4945	0.043
Mof_O 	O 	0.4752	0.8179	0.58	0.051
Mof_C 	C 	0.4798	0.8727	0.5541	0.475
Mof_C 	C 	0.5273	0.9278	0.5639	0.014
Mof_H 	H 	0.5559	0.9252	0.5893	0.14
Mof_C 	C 	0.5329	0.9866	0.5365	0.675
Mof_H 	H 	0.5653	0.0242	0.5432	-0.278
Mof_N 	N 	0.491	0.5097	0.4993	-0.067
Mof_C 	C 	0.4436	0.5647	0.4895	-0.157
Mof_H 	H 	0.415	0.9378	0.4641	0.157
Mof_C 	C 	0.438	0.8765	0.517	0.115
Mof_H 	H 	0.4056	0.8389	0.5103	-0.008
Mof_C 	C 	0.4972	0.5483	0.5288	-0.319
Mof_C 	C 	0.4656	0.6132	0.5181	-0.072
Mof_H 	H 	0.446	0.1201	0.5101	0.049
Mof_C 	C 	0.4626	0.6682	0.5484	-0.607
Mof_H 	H 	0.441	0.2126	0.459	0.223
Mof_N 	N 	0.4912	0.6581	0.5895	-0.091
Mof_C 	C 	0.5229	0.5931	0.6003	-0.114
Mof_H 	H 	0.5425	0.0863	0.3716	0.055
Mof_C 	C 	0.5259	0.5382	0.57	-0.341
Mof_H 	H 	0.5475	0.4938	0.5773	0.095
Mof_O 	O 	0.3779	0.7484	0.6454	-0.123
Mof_C 	C 	0.2824	0.6941	0.6099	-0.174
Mof_H 	H 	0.2839	0.6547	0.6293	0.082
Mof_C 	C 	0.2322	0.6954	0.5767	0.101
Mof_H 	H 	0.1994	0.6569	0.5734	-0.015
Mof_N 	N 	0.2299	0.7531	0.5482	-0.066
Mof_C 	C 	0.2779	0.6905	0.5531	-0.039
Mof_H 	H 	0.2764	0.6511	0.5336	0.029
Mof_C 	C 	0.3281	0.8081	0.5863	-0.062
Mof_H 	H 	0.3609	0.8467	0.5896	0.046
Mof_C 	C 	0.1814	0.753	0.513	0.038
Mof_C 	C 	0.1404	0.8131	0.5034	-0.074
Mof_H 	H 	0.1451	0.8552	0.5205	0.041
Mof_C 	C 	0.0926	0.8116	0.4689	0.007
Mof_H 	H 	0.0646	0.8527	0.4624	0.016
Mof_C 	C 	0.1267	0.8101	0.4535	0.014
Mof_H 	H 	0.122	0.8522	0.4365	0.014
Mof_C 	C 	0.1745	0.6914	0.488	-0.046
Mof_H 	H 	0.2025	0.6503	0.4945	0.034
Mof_O 	O 	0.5248	0.6821	0.58	0.051
Mof_C 	C 	0.5202	0.6273	0.5541	0.475
Mof_C 	C 	0.4727	0.5722	0.5639	0.014
Mof_H 	H 	0.4441	0.5748	0.5893	0.14
Mof_C 	C 	0.4671	0.5134	0.5365	0.674
Mof_H 	H 	0.4347	0.4758	0.5432	-0.278
Mof_N 	N 	0.509	0.9903	0.4993	-0.066
Mof_C 	C 	0.5564	0.9353	0.4895	-0.157
Mof_H 	H 	0.585	0.5622	0.4641	0.158
Mof_C 	C 	0.562	0.6235	0.517	0.115
Mof_H 	H 	0.5944	0.6611	0.5103	-0.008
Mof_C 	C 	0.5028	0.9517	0.5288	-0.319
Mof_C 	C 	0.5344	0.8868	0.5181	-0.071
Mof_H 	H 	0.554	0.3799	0.5101	0.049
Mof_C 	C 	0.5374	0.8318	0.5484	-0.607
Mof_H 	H 	0.559	0.2874	0.459	0.223
Mof_N 	N 	0.5088	0.8419	0.5895	-0.091
Mof_C 	C 	0.4771	0.9069	0.6003	-0.114
Mof_H 	H 	0.4575	0.4137	0.3716	0.055
Mof_C 	C 	0.4741	0.9618	0.57	-0.341
Mof_H 	H 	0.4525	0.0062	0.5773	0.095
Mof_O 	O 	0.8779	0.2484	0.1454	-0.117
Mof_C 	C 	0.7824	0.1941	0.1099	-0.182
Mof_H 	H 	0.7839	0.1547	0.1293	0.086
Mof_C 	C 	0.7322	0.1954	0.0767	0.111
Mof_H 	H 	0.6994	0.1569	0.0734	-0.016
Mof_N 	N 	0.7299	0.2531	0.0482	-0.066
Mof_C 	C 	0.7779	0.1905	0.0531	-0.049
Mof_H 	H 	0.7764	0.1511	0.0336	0.032
Mof_C 	C 	0.8281	0.3081	0.0863	-0.047
Mof_H 	H 	0.8609	0.3467	0.0896	0.036
Mof_C 	C 	0.6814	0.253	0.013	0.039
Mof_C 	C 	0.6404	0.3131	0.0034	-0.058
Mof_H 	H 	0.6451	0.3552	0.0205	0.04
Mof_C 	C 	0.5926	0.3116	0.9689	0.016
Mof_H 	H 	0.5646	0.3527	0.9624	0.026
Mof_C 	C 	0.6267	0.3101	0.9535	0.006
Mof_H 	H 	0.622	0.3522	0.9365	0.018
Mof_C 	C 	0.6745	0.1914	0.988	-0.057
Mof_H 	H 	0.7025	0.1503	0.9945	0.038
Mof_O 	O 	0.0248	0.1821	0.08	-0.046
Mof_C 	C 	0.0202	0.1273	0.0541	0.645
Mof_C 	C 	0.9727	0.0722	0.0639	-0.208
Mof_H 	H 	0.9441	0.0748	0.0893	0.268
Mof_C 	C 	0.9671	0.0134	0.0365	1.112
Mof_H 	H 	0.9347	0.9758	0.0432	-0.468
Mof_N 	N 	0.009	0.4903	0.9993	-0.299
Mof_C 	C 	0.0564	0.4353	0.9895	0.142
Mof_H 	H 	0.085	0.0622	0.9641	-0.018
Mof_C 	C 	0.062	0.1235	0.017	-0.013
Mof_H 	H 	0.0944	0.1611	0.0103	0.043
Mof_C 	C 	0.0028	0.4517	0.0288	-0.212
Mof_C 	C 	0.0344	0.3868	0.0181	-0.073
Mof_H 	H 	0.054	0.8799	0.0101	0.01
Mof_C 	C 	0.0374	0.3318	0.0484	-0.741
Mof_H 	H 	0.059	0.7874	0.959	0.262
Mof_N 	N 	0.0088	0.3419	0.0895	-0.007
Mof_C 	C 	0.9771	0.4069	0.1003	-0.198
Mof_H 	H 	0.9575	0.9137	0.8716	0.078
Mof_C 	C 	0.9741	0.4618	0.07	-0.388
Mof_H 	H 	0.9525	0.5062	0.0773	0.103
Mof_Cd	Cd	2.11816e-32	0.75	0.38973	0.343
Mof_Cd	Cd	0.5	0.25	0.88973	0.398
Mof_Cd	Cd	0.5	0.75	0.63973	0.396
Mof_Cd	Cd	3.2117e-33	0.25	0.13973	0.355
Mof_Cd	Cd	0.5	0.75	0.11027	0.398
Mof_Cd	Cd	3.78174e-33	0.25	0.61027	0.343
Mof_Cd	Cd	5.33094e-33	0.75	0.86027	0.355
Mof_Cd	Cd	0.5	0.25	0.36027	0.396
Mof_C 	C 	1.16432e-32	0.5804	0.3647	0.116
Mof_C 	C 	0.5	0.0804	0.8647	0.244
Mof_C 	C 	0.5	0.4196	0.8647	0.244
Mof_C 	C 	6.95161e-33	0.9196	0.3647	0.118
Mof_C 	C 	0.6696	0.75	0.6147	0.244
Mof_C 	C 	0.8304	0.25	0.1147	0.238
Mof_C 	C 	0.5	0.5804	0.1353	0.244
Mof_C 	C 	-5.44641e-33	0.0804	0.6353	0.118
Mof_C 	C 	1.33201e-32	0.4196	0.6353	0.116
Mof_C 	C 	0.5	0.9196	0.1353	0.244
Mof_C 	C 	0.8304	0.75	0.8853	0.238
Mof_C 	C 	0.6696	0.25	0.3853	0.244
Mof_C 	C 	0.3304	0.25	0.3853	0.244
Mof_C 	C 	0.1696	0.75	0.8853	0.247
Mof_C 	C 	0.1696	0.25	0.1147	0.247
Mof_C 	C 	0.3304	0.75	0.6147	0.244
Mof_N 	N 	0.9143	0.75	0.444	-0.121
Mof_N 	N 	0.5857	0.25	0.944	-0.135
Mof_N 	N 	0.5	0.6643	0.694	-0.135
Mof_N 	N 	3.548e-33	0.1643	0.194	-0.165
Mof_N 	N 	8.23963e-33	0.3357	0.194	-0.165
Mof_N 	N 	0.5	0.8357	0.694	-0.135
Mof_N 	N 	0.5857	0.75	0.056	-0.135
Mof_N 	N 	0.9143	0.25	0.556	-0.121
Mof_N 	N 	4.99464e-33	0.6643	0.806	-0.165
Mof_N 	N 	0.5	0.1643	0.306	-0.135
Mof_N 	N 	0.5	0.3357	0.306	-0.135
Mof_N 	N 	3.31444e-32	0.8357	0.806	-0.165
Mof_N 	N 	0.0857	0.25	0.556	-0.139
Mof_N 	N 	0.4143	0.75	0.056	-0.135
Mof_N 	N 	0.4143	0.25	0.944	-0.135
Mof_N 	N 	0.0857	0.75	0.444	-0.139
_end
