data_functionalizedCrystal
_audit_creation_method	'EQeq! by Chris Wilmer'
_symmetry_space_group_name_H-M	'P1'
_symmetry_Int_Tables_number	1
_symmetry_cell_setting	triclinic
loop_
_symmetry_equiv_pos_as_xyz
  x,y,z
_cell_length_a	20.3883
_cell_length_b	20.3883
_cell_length_c	20.3883
_cell_angle_alpha	54.956
_cell_angle_beta	54.956
_cell_angle_gamma	54.956
loop_
_atom_site_label
_atom_site_type_symbol
_atom_site_fract_x
_atom_site_fract_y
_atom_site_fract_z
_atom_site_charge
Mof_O 	O 	0.37522	0.11441	0.52018	-0.39
Mof_O 	O 	0.37794	0.00115	0.52457	-0.392
Mof_C 	C 	0.34154	0.07522	0.52543	0.334
Mof_C 	C 	0.25012	0.12234	0.5305	0.011
Mof_C 	C 	0.2113	0.0846	0.5314	-0.162
Mof_H 	H 	0.2405	0.0282	0.5334	0.131
Mof_H 	H 	0.1294	0.0464	0.5133	0.289
Mof_C 	C 	0.0361	0.1127	0.5036	-0.07
Mof_O 	O 	0.9834	0.1875	0.4993	-0.175
Mof_C 	C 	0.0307	0.058	0.4831	0.029
Mof_C 	C 	0.9523	0.0919	0.4762	-0.098
Mof_C 	C 	0.9325	0.0449	0.465	0.081
Mof_C 	C 	0.991	0.9642	0.4607	-0.009
Mof_C 	C 	0.0188	0.1031	0.5374	-0.095
Mof_O 	O 	0.9472	0.1619	0.5745	-0.098
Mof_H 	H 	0.1143	0.0362	0.5468	0.142
Mof_H 	H 	0.9131	0.1459	0.479	0.051
Mof_H 	H 	0.88	0.0676	0.4603	0.039
Mof_H 	H 	0.1086	0.8763	0.4648	0.025
Mof_H 	H 	0.1417	0.9546	0.4835	0.048
Mof_C 	C 	0.0893	0.9773	0.4788	0.02
Mof_C 	C 	0.9306	0.0697	0.5324	-0.044
Mof_O 	O 	0.52018	0.37522	0.11441	-0.391
Mof_O 	O 	0.52457	0.37794	0.00115	-0.393
Mof_C 	C 	0.52543	0.34154	0.07522	0.333
Mof_C 	C 	0.5305	0.25012	0.12234	0.01
Mof_C 	C 	0.5314	0.2113	0.0846	-0.163
Mof_H 	H 	0.5334	0.2405	0.0282	0.13
Mof_H 	H 	0.5133	0.1294	0.0464	0.289
Mof_C 	C 	0.5036	0.0361	0.1127	-0.07
Mof_O 	O 	0.4993	0.9834	0.1875	-0.175
Mof_C 	C 	0.4831	0.0307	0.058	0.029
Mof_C 	C 	0.4762	0.9523	0.0919	-0.098
Mof_C 	C 	0.465	0.9325	0.0449	0.081
Mof_C 	C 	0.4607	0.991	0.9642	-0.009
Mof_C 	C 	0.5374	0.0188	0.1031	-0.095
Mof_O 	O 	0.5745	0.9472	0.1619	-0.098
Mof_H 	H 	0.5468	0.1143	0.0362	0.142
Mof_H 	H 	0.479	0.9131	0.1459	0.051
Mof_H 	H 	0.4603	0.88	0.0676	0.039
Mof_H 	H 	0.4648	0.1086	0.8763	0.025
Mof_H 	H 	0.4835	0.1417	0.9546	0.048
Mof_C 	C 	0.4788	0.0893	0.9773	0.02
Mof_C 	C 	0.5324	0.9306	0.0697	-0.044
Mof_O 	O 	0.11441	0.52018	0.37522	-0.391
Mof_O 	O 	0.00115	0.52457	0.37794	-0.393
Mof_C 	C 	0.07522	0.52543	0.34154	0.333
Mof_C 	C 	0.12234	0.5305	0.25012	0.01
Mof_C 	C 	0.0846	0.5314	0.2113	-0.163
Mof_H 	H 	0.0282	0.5334	0.2405	0.13
Mof_H 	H 	0.0464	0.5133	0.1294	0.289
Mof_C 	C 	0.1127	0.5036	0.0361	-0.07
Mof_O 	O 	0.1875	0.4993	0.9834	-0.175
Mof_C 	C 	0.058	0.4831	0.0307	0.029
Mof_C 	C 	0.0919	0.4762	0.9523	-0.098
Mof_C 	C 	0.0449	0.465	0.9325	0.081
Mof_C 	C 	0.9642	0.4607	0.991	-0.009
Mof_C 	C 	0.1031	0.5374	0.0188	-0.095
Mof_O 	O 	0.1619	0.5745	0.9472	-0.098
Mof_H 	H 	0.0362	0.5468	0.1143	0.142
Mof_H 	H 	0.1459	0.479	0.9131	0.051
Mof_H 	H 	0.0676	0.4603	0.88	0.039
Mof_H 	H 	0.8763	0.4648	0.1086	0.025
Mof_H 	H 	0.9546	0.4835	0.1417	0.048
Mof_C 	C 	0.9773	0.4788	0.0893	0.02
Mof_C 	C 	0.0697	0.5324	0.9306	-0.044
Mof_O 	O 	0.88559	0.62478	0.47982	-0.391
Mof_O 	O 	0.99885	0.62206	0.47543	-0.393
Mof_C 	C 	0.92478	0.65846	0.47457	0.333
Mof_C 	C 	0.87766	0.74988	0.4695	0.01
Mof_C 	C 	0.9154	0.7887	0.4686	-0.163
Mof_H 	H 	0.9718	0.7595	0.4666	0.13
Mof_H 	H 	0.9536	0.8706	0.4867	0.289
Mof_C 	C 	0.8873	0.9639	0.4964	-0.07
Mof_O 	O 	0.8125	0.0166	0.5007	-0.175
Mof_C 	C 	0.942	0.9693	0.5169	0.029
Mof_C 	C 	0.9081	0.0477	0.5238	-0.098
Mof_C 	C 	0.9551	0.0675	0.535	0.081
Mof_C 	C 	0.0358	0.009	0.5393	-0.009
Mof_C 	C 	0.8969	0.9812	0.4626	-0.095
Mof_O 	O 	0.8381	0.0528	0.4255	-0.098
Mof_H 	H 	0.9638	0.8857	0.4532	0.142
Mof_H 	H 	0.8541	0.0869	0.521	0.051
Mof_H 	H 	0.9324	0.12	0.5397	0.039
Mof_H 	H 	0.1237	0.8914	0.5352	0.025
Mof_H 	H 	0.0454	0.8583	0.5165	0.048
Mof_C 	C 	0.0227	0.9107	0.5212	0.02
Mof_C 	C 	0.9303	0.0694	0.4676	-0.044
Mof_O 	O 	0.62478	0.47982	0.88559	-0.391
Mof_O 	O 	0.62206	0.47543	0.99885	-0.393
Mof_C 	C 	0.65846	0.47457	0.92478	0.333
Mof_C 	C 	0.74988	0.4695	0.87766	0.01
Mof_C 	C 	0.7887	0.4686	0.9154	-0.163
Mof_H 	H 	0.7595	0.4666	0.9718	0.13
Mof_H 	H 	0.8706	0.4867	0.9536	0.289
Mof_C 	C 	0.9639	0.4964	0.8873	-0.07
Mof_O 	O 	0.0166	0.5007	0.8125	-0.175
Mof_C 	C 	0.9693	0.5169	0.942	0.029
Mof_C 	C 	0.0477	0.5238	0.9081	-0.098
Mof_C 	C 	0.0675	0.535	0.9551	0.081
Mof_C 	C 	0.009	0.5393	0.0358	-0.009
Mof_C 	C 	0.9812	0.4626	0.8969	-0.095
Mof_O 	O 	0.0528	0.4255	0.8381	-0.098
Mof_H 	H 	0.8857	0.4532	0.9638	0.142
Mof_H 	H 	0.0869	0.521	0.8541	0.051
Mof_H 	H 	0.12	0.5397	0.9324	0.039
Mof_H 	H 	0.8914	0.5352	0.1237	0.025
Mof_H 	H 	0.8583	0.5165	0.0454	0.048
Mof_C 	C 	0.9107	0.5212	0.0227	0.02
Mof_C 	C 	0.0694	0.4676	0.9303	-0.044
Mof_O 	O 	0.47982	0.88559	0.62478	-0.391
Mof_O 	O 	0.47543	0.99885	0.62206	-0.393
Mof_C 	C 	0.47457	0.92478	0.65846	0.333
Mof_C 	C 	0.4695	0.87766	0.74988	0.01
Mof_C 	C 	0.4686	0.9154	0.7887	-0.163
Mof_H 	H 	0.4666	0.9718	0.7595	0.13
Mof_H 	H 	0.4867	0.9536	0.8706	0.289
Mof_C 	C 	0.4964	0.8873	0.9639	-0.07
Mof_O 	O 	0.5007	0.8125	0.0166	-0.175
Mof_C 	C 	0.5169	0.942	0.9693	0.029
Mof_C 	C 	0.5238	0.9081	0.0477	-0.098
Mof_C 	C 	0.535	0.9551	0.0675	0.081
Mof_C 	C 	0.5393	0.0358	0.009	-0.009
Mof_C 	C 	0.4626	0.8969	0.9812	-0.095
Mof_O 	O 	0.4255	0.8381	0.0528	-0.098
Mof_H 	H 	0.4532	0.9638	0.8857	0.142
Mof_H 	H 	0.521	0.8541	0.0869	0.051
Mof_H 	H 	0.5397	0.9324	0.12	0.039
Mof_H 	H 	0.5352	0.1237	0.8914	0.025
Mof_H 	H 	0.5165	0.0454	0.8583	0.048
Mof_C 	C 	0.5212	0.0227	0.9107	0.02
Mof_C 	C 	0.4676	0.9303	0.0694	-0.044
Mof_O 	O 	0.62478	0.88559	0.47982	-0.391
Mof_O 	O 	0.62206	0.99885	0.47543	-0.393
Mof_C 	C 	0.65846	0.92478	0.47457	0.333
Mof_C 	C 	0.74988	0.87766	0.4695	0.01
Mof_C 	C 	0.7887	0.9154	0.4686	-0.163
Mof_H 	H 	0.7595	0.9718	0.4666	0.13
Mof_H 	H 	0.8706	0.9536	0.4867	0.289
Mof_C 	C 	0.9639	0.8873	0.4964	-0.07
Mof_O 	O 	0.0166	0.8125	0.5007	-0.175
Mof_C 	C 	0.9693	0.942	0.5169	0.029
Mof_C 	C 	0.0477	0.9081	0.5238	-0.098
Mof_C 	C 	0.0675	0.9551	0.535	0.081
Mof_C 	C 	0.009	0.0358	0.5393	-0.009
Mof_C 	C 	0.9812	0.8969	0.4626	-0.095
Mof_O 	O 	0.0528	0.8381	0.4255	-0.098
Mof_H 	H 	0.8857	0.9638	0.4532	0.142
Mof_H 	H 	0.0869	0.8541	0.521	0.051
Mof_H 	H 	0.12	0.9324	0.5397	0.039
Mof_H 	H 	0.8914	0.1237	0.5352	0.025
Mof_H 	H 	0.8583	0.0454	0.5165	0.048
Mof_C 	C 	0.9107	0.0227	0.5212	0.02
Mof_C 	C 	0.0694	0.9303	0.4676	-0.044
Mof_O 	O 	0.47982	0.62478	0.88559	-0.391
Mof_O 	O 	0.47543	0.62206	0.99885	-0.393
Mof_C 	C 	0.47457	0.65846	0.92478	0.333
Mof_C 	C 	0.4695	0.74988	0.87766	0.01
Mof_C 	C 	0.4686	0.7887	0.9154	-0.163
Mof_H 	H 	0.4666	0.7595	0.9718	0.13
Mof_H 	H 	0.4867	0.8706	0.9536	0.289
Mof_C 	C 	0.4964	0.9639	0.8873	-0.07
Mof_O 	O 	0.5007	0.0166	0.8125	-0.175
Mof_C 	C 	0.5169	0.9693	0.942	0.029
Mof_C 	C 	0.5238	0.0477	0.9081	-0.098
Mof_C 	C 	0.535	0.0675	0.9551	0.081
Mof_C 	C 	0.5393	0.009	0.0358	-0.009
Mof_C 	C 	0.4626	0.9812	0.8969	-0.095
Mof_O 	O 	0.4255	0.0528	0.8381	-0.098
Mof_H 	H 	0.4532	0.8857	0.9638	0.142
Mof_H 	H 	0.521	0.0869	0.8541	0.051
Mof_H 	H 	0.5397	0.12	0.9324	0.039
Mof_H 	H 	0.5352	0.8914	0.1237	0.025
Mof_H 	H 	0.5165	0.8583	0.0454	0.048
Mof_C 	C 	0.5212	0.9107	0.0227	0.02
Mof_C 	C 	0.4676	0.0694	0.9303	-0.044
Mof_O 	O 	0.88559	0.47982	0.62478	-0.391
Mof_O 	O 	0.99885	0.47543	0.62206	-0.393
Mof_C 	C 	0.92478	0.47457	0.65846	0.333
Mof_C 	C 	0.87766	0.4695	0.74988	0.01
Mof_C 	C 	0.9154	0.4686	0.7887	-0.163
Mof_H 	H 	0.9718	0.4666	0.7595	0.13
Mof_H 	H 	0.9536	0.4867	0.8706	0.289
Mof_C 	C 	0.8873	0.4964	0.9639	-0.07
Mof_O 	O 	0.8125	0.5007	0.0166	-0.175
Mof_C 	C 	0.942	0.5169	0.9693	0.029
Mof_C 	C 	0.9081	0.5238	0.0477	-0.098
Mof_C 	C 	0.9551	0.535	0.0675	0.081
Mof_C 	C 	0.0358	0.5393	0.009	-0.009
Mof_C 	C 	0.8969	0.4626	0.9812	-0.095
Mof_O 	O 	0.8381	0.4255	0.0528	-0.098
Mof_H 	H 	0.9638	0.4532	0.8857	0.142
Mof_H 	H 	0.8541	0.521	0.0869	0.051
Mof_H 	H 	0.9324	0.5397	0.12	0.039
Mof_H 	H 	0.1237	0.5352	0.8914	0.025
Mof_H 	H 	0.0454	0.5165	0.8583	0.048
Mof_C 	C 	0.0227	0.5212	0.9107	0.02
Mof_C 	C 	0.9303	0.4676	0.0694	-0.044
Mof_O 	O 	0.11441	0.37522	0.52018	-0.391
Mof_O 	O 	0.00115	0.37794	0.52457	-0.393
Mof_C 	C 	0.07522	0.34154	0.52543	0.333
Mof_C 	C 	0.12234	0.25012	0.5305	0.01
Mof_C 	C 	0.0846	0.2113	0.5314	-0.163
Mof_H 	H 	0.0282	0.2405	0.5334	0.13
Mof_H 	H 	0.0464	0.1294	0.5133	0.289
Mof_C 	C 	0.1127	0.0361	0.5036	-0.07
Mof_O 	O 	0.1875	0.9834	0.4993	-0.175
Mof_C 	C 	0.058	0.0307	0.4831	0.029
Mof_C 	C 	0.0919	0.9523	0.4762	-0.098
Mof_C 	C 	0.0449	0.9325	0.465	0.081
Mof_C 	C 	0.9642	0.991	0.4607	-0.009
Mof_C 	C 	0.1031	0.0188	0.5374	-0.095
Mof_O 	O 	0.1619	0.9472	0.5745	-0.098
Mof_H 	H 	0.0362	0.1143	0.5468	0.142
Mof_H 	H 	0.1459	0.9131	0.479	0.051
Mof_H 	H 	0.0676	0.88	0.4603	0.039
Mof_H 	H 	0.8763	0.1086	0.4648	0.025
Mof_H 	H 	0.9546	0.1417	0.4835	0.048
Mof_C 	C 	0.9773	0.0893	0.4788	0.02
Mof_C 	C 	0.0697	0.9306	0.5324	-0.044
Mof_O 	O 	0.37522	0.52018	0.11441	-0.391
Mof_O 	O 	0.37794	0.52457	0.00115	-0.393
Mof_C 	C 	0.34154	0.52543	0.07522	0.333
Mof_C 	C 	0.25012	0.5305	0.12234	0.01
Mof_C 	C 	0.2113	0.5314	0.0846	-0.163
Mof_H 	H 	0.2405	0.5334	0.0282	0.13
Mof_H 	H 	0.1294	0.5133	0.0464	0.289
Mof_C 	C 	0.0361	0.5036	0.1127	-0.07
Mof_O 	O 	0.9834	0.4993	0.1875	-0.175
Mof_C 	C 	0.0307	0.4831	0.058	0.029
Mof_C 	C 	0.9523	0.4762	0.0919	-0.098
Mof_C 	C 	0.9325	0.465	0.0449	0.081
Mof_C 	C 	0.991	0.4607	0.9642	-0.009
Mof_C 	C 	0.0188	0.5374	0.1031	-0.095
Mof_O 	O 	0.9472	0.5745	0.1619	-0.098
Mof_H 	H 	0.1143	0.5468	0.0362	0.142
Mof_H 	H 	0.9131	0.479	0.1459	0.051
Mof_H 	H 	0.88	0.4603	0.0676	0.039
Mof_H 	H 	0.1086	0.4648	0.8763	0.025
Mof_H 	H 	0.1417	0.4835	0.9546	0.048
Mof_C 	C 	0.0893	0.4788	0.9773	0.02
Mof_C 	C 	0.9306	0.5324	0.0697	-0.044
Mof_O 	O 	0.52018	0.11441	0.37522	-0.391
Mof_O 	O 	0.52457	0.00115	0.37794	-0.393
Mof_C 	C 	0.52543	0.07522	0.34154	0.333
Mof_C 	C 	0.5305	0.12234	0.25012	0.01
Mof_C 	C 	0.5314	0.0846	0.2113	-0.163
Mof_H 	H 	0.5334	0.0282	0.2405	0.13
Mof_H 	H 	0.5133	0.0464	0.1294	0.289
Mof_C 	C 	0.5036	0.1127	0.0361	-0.07
Mof_O 	O 	0.4993	0.1875	0.9834	-0.175
Mof_C 	C 	0.4831	0.058	0.0307	0.029
Mof_C 	C 	0.4762	0.0919	0.9523	-0.098
Mof_C 	C 	0.465	0.0449	0.9325	0.081
Mof_C 	C 	0.4607	0.9642	0.991	-0.009
Mof_C 	C 	0.5374	0.1031	0.0188	-0.095
Mof_O 	O 	0.5745	0.1619	0.9472	-0.098
Mof_H 	H 	0.5468	0.0362	0.1143	0.142
Mof_H 	H 	0.479	0.1459	0.9131	0.051
Mof_H 	H 	0.4603	0.0676	0.88	0.039
Mof_H 	H 	0.4648	0.8763	0.1086	0.025
Mof_H 	H 	0.4835	0.9546	0.1417	0.048
Mof_C 	C 	0.4788	0.9773	0.0893	0.02
Mof_C 	C 	0.5324	0.0697	0.9306	-0.044
Mof_Cu	Cu	0.49846	0.06642	0.49846	0.906
Mof_Cu	Cu	0.49846	0.49846	0.06642	0.906
Mof_Cu	Cu	0.06642	0.49846	0.49846	0.906
Mof_Cu	Cu	0.93358	0.50154	0.50154	0.906
Mof_Cu	Cu	0.50154	0.50154	0.93358	0.906
Mof_Cu	Cu	0.50154	0.93358	0.50154	0.906
Mof_C 	C 	0.20536	0.20536	0.5315	-0.054
Mof_H 	H 	0.2306	0.2306	0.5329	0.085
Mof_C 	C 	0.1291	0.1291	0.5294	0.218
Mof_N 	N 	0.09109	0.09109	0.5266	-0.478
Mof_C 	C 	0.5315	0.20536	0.20536	-0.054
Mof_H 	H 	0.5329	0.2306	0.2306	0.085
Mof_C 	C 	0.5294	0.1291	0.1291	0.218
Mof_N 	N 	0.5266	0.09109	0.09109	-0.478
Mof_C 	C 	0.20536	0.5315	0.20536	-0.054
Mof_H 	H 	0.2306	0.5329	0.2306	0.085
Mof_C 	C 	0.1291	0.5294	0.1291	0.218
Mof_N 	N 	0.09109	0.5266	0.09109	-0.478
Mof_C 	C 	0.79464	0.79464	0.4685	-0.054
Mof_H 	H 	0.7694	0.7694	0.4671	0.085
Mof_C 	C 	0.8709	0.8709	0.4706	0.218
Mof_N 	N 	0.90891	0.90891	0.4734	-0.478
Mof_C 	C 	0.79464	0.4685	0.79464	-0.054
Mof_H 	H 	0.7694	0.4671	0.7694	0.085
Mof_C 	C 	0.8709	0.4706	0.8709	0.218
Mof_N 	N 	0.90891	0.4734	0.90891	-0.478
Mof_C 	C 	0.4685	0.79464	0.79464	-0.054
Mof_H 	H 	0.4671	0.7694	0.7694	0.085
Mof_C 	C 	0.4706	0.8709	0.8709	0.218
Mof_N 	N 	0.4734	0.90891	0.90891	-0.478
_end
