data_functionalizedCrystal
_audit_creation_method	'EQeq! by Chris Wilmer'
_symmetry_space_group_name_H-M	'P1'
_symmetry_Int_Tables_number	1
_symmetry_cell_setting	triclinic
loop_
_symmetry_equiv_pos_as_xyz
  x,y,z
_cell_length_a	35.934
_cell_length_b	35.934
_cell_length_c	35.934
_cell_angle_alpha	90
_cell_angle_beta	90
_cell_angle_gamma	90
loop_
_atom_site_label
_atom_site_type_symbol
_atom_site_fract_x
_atom_site_fract_y
_atom_site_fract_z
_atom_site_charge
Mof_O 	O 	0.30226	0.29288	0.21259	-1.193
Mof_O 	O 	0.32664	0.24805	0.24854	-1.175
Mof_C 	C 	0.32856	0.27876	0.23172	0.918
Mof_C 	C 	0.36394	0.29979	0.23388	-0.424
Mof_C 	C 	0.39411	0.28566	0.25262	0.274
Mof_H 	H 	0.3923	0.2624	0.2639	-0.07
Mof_C 	C 	0.36697	0.3345	0.21663	0.272
Mof_H 	H 	0.3468	0.3444	0.2039	-0.076
Mof_C 	C 	0.42707	0.30531	0.25503	-0.295
Mof_H 	H 	0.447	0.2955	0.2683	0.122
Mof_C 	C 	0.40001	0.35408	0.21856	-0.297
Mof_H 	H 	0.4018	0.3771	0.207	0.122
Mof_C 	C 	0.43067	0.33999	0.23752	0.176
Mof_C 	C 	0.46612	0.36106	0.23975	-0.047
Mof_C 	C 	0.46655	0.39955	0.24043	-0.053
Mof_H 	H 	0.444	0.4123	0.2412	0.039
Mof_C 	C 	0.5259	0.4793	0.2228	-0.043
Mof_H 	H 	0.5461	0.466	0.2102	0.032
Mof_C 	C 	0.5248	0.47965	0.2596	-0.04
Mof_H 	H 	0.5443	0.4665	0.2735	0.035
Mof_O 	O 	0.69774	0.70712	0.21259	-1.193
Mof_O 	O 	0.67336	0.75195	0.24854	-1.175
Mof_C 	C 	0.67144	0.72124	0.23172	0.918
Mof_C 	C 	0.63606	0.70021	0.23388	-0.424
Mof_C 	C 	0.60589	0.71434	0.25262	0.274
Mof_H 	H 	0.6077	0.7376	0.2639	-0.07
Mof_C 	C 	0.63303	0.6655	0.21663	0.272
Mof_H 	H 	0.6532	0.6556	0.2039	-0.076
Mof_C 	C 	0.57293	0.69469	0.25503	-0.295
Mof_H 	H 	0.553	0.7045	0.2683	0.122
Mof_C 	C 	0.59999	0.64592	0.21856	-0.297
Mof_H 	H 	0.5982	0.6229	0.207	0.122
Mof_C 	C 	0.56933	0.66001	0.23752	0.176
Mof_C 	C 	0.53388	0.63894	0.23975	-0.047
Mof_C 	C 	0.53345	0.60045	0.24043	-0.053
Mof_H 	H 	0.556	0.5877	0.2412	0.039
Mof_C 	C 	0.4741	0.5207	0.2228	-0.043
Mof_H 	H 	0.4539	0.534	0.2102	0.032
Mof_C 	C 	0.4752	0.52035	0.2596	-0.04
Mof_H 	H 	0.4557	0.5335	0.2735	0.035
Mof_O 	O 	0.69774	0.29288	0.78741	-1.193
Mof_O 	O 	0.67336	0.24805	0.75146	-1.175
Mof_C 	C 	0.67144	0.27876	0.76828	0.918
Mof_C 	C 	0.63606	0.29979	0.76612	-0.424
Mof_C 	C 	0.60589	0.28566	0.74738	0.274
Mof_H 	H 	0.6077	0.2624	0.7361	-0.07
Mof_C 	C 	0.63303	0.3345	0.78337	0.272
Mof_H 	H 	0.6532	0.3444	0.7961	-0.076
Mof_C 	C 	0.57293	0.30531	0.74497	-0.295
Mof_H 	H 	0.553	0.2955	0.7317	0.122
Mof_C 	C 	0.59999	0.35408	0.78144	-0.297
Mof_H 	H 	0.5982	0.3771	0.793	0.122
Mof_C 	C 	0.56933	0.33999	0.76248	0.177
Mof_C 	C 	0.53388	0.36106	0.76025	-0.046
Mof_C 	C 	0.53345	0.39955	0.75957	-0.052
Mof_H 	H 	0.556	0.4123	0.7588	0.04
Mof_C 	C 	0.4741	0.4793	0.7772	-0.042
Mof_H 	H 	0.4539	0.466	0.7898	0.033
Mof_C 	C 	0.4752	0.47965	0.7404	-0.039
Mof_H 	H 	0.4557	0.4665	0.7265	0.036
Mof_O 	O 	0.30226	0.70712	0.78741	-1.192
Mof_O 	O 	0.32664	0.75195	0.75146	-1.174
Mof_C 	C 	0.32856	0.72124	0.76828	0.919
Mof_C 	C 	0.36394	0.70021	0.76612	-0.423
Mof_C 	C 	0.39411	0.71434	0.74738	0.275
Mof_H 	H 	0.3923	0.7376	0.7361	-0.069
Mof_C 	C 	0.36697	0.6655	0.78337	0.273
Mof_H 	H 	0.3468	0.6556	0.7961	-0.075
Mof_C 	C 	0.42707	0.69469	0.74497	-0.294
Mof_H 	H 	0.447	0.7045	0.7317	0.123
Mof_C 	C 	0.40001	0.64592	0.78144	-0.296
Mof_H 	H 	0.4018	0.6229	0.793	0.123
Mof_C 	C 	0.43067	0.66001	0.76248	0.177
Mof_C 	C 	0.46612	0.63894	0.76025	-0.046
Mof_C 	C 	0.46655	0.60045	0.75957	-0.052
Mof_H 	H 	0.444	0.5877	0.7588	0.04
Mof_C 	C 	0.5259	0.5207	0.7772	-0.042
Mof_H 	H 	0.5461	0.534	0.7898	0.033
Mof_C 	C 	0.5248	0.52035	0.7404	-0.039
Mof_H 	H 	0.5443	0.5335	0.7265	0.036
Mof_O 	O 	0.21259	0.30226	0.29288	-1.192
Mof_O 	O 	0.24854	0.32664	0.24805	-1.174
Mof_C 	C 	0.23172	0.32856	0.27876	0.919
Mof_C 	C 	0.23388	0.36394	0.29979	-0.423
Mof_C 	C 	0.25262	0.39411	0.28566	0.275
Mof_H 	H 	0.2639	0.3923	0.2624	-0.069
Mof_C 	C 	0.21663	0.36697	0.3345	0.273
Mof_H 	H 	0.2039	0.3468	0.3444	-0.075
Mof_C 	C 	0.25503	0.42707	0.30531	-0.294
Mof_H 	H 	0.2683	0.447	0.2955	0.123
Mof_C 	C 	0.21856	0.40001	0.35408	-0.296
Mof_H 	H 	0.207	0.4018	0.3771	0.123
Mof_C 	C 	0.23752	0.43067	0.33999	0.177
Mof_C 	C 	0.23975	0.46612	0.36106	-0.046
Mof_C 	C 	0.24043	0.46655	0.39955	-0.052
Mof_H 	H 	0.2412	0.444	0.4123	0.04
Mof_C 	C 	0.2228	0.5259	0.4793	-0.042
Mof_H 	H 	0.2102	0.5461	0.466	0.033
Mof_C 	C 	0.2596	0.5248	0.47965	-0.039
Mof_H 	H 	0.2735	0.5443	0.4665	0.036
Mof_O 	O 	0.21259	0.69774	0.70712	-1.192
Mof_O 	O 	0.24854	0.67336	0.75195	-1.174
Mof_C 	C 	0.23172	0.67144	0.72124	0.919
Mof_C 	C 	0.23388	0.63606	0.70021	-0.423
Mof_C 	C 	0.25262	0.60589	0.71434	0.275
Mof_H 	H 	0.2639	0.6077	0.7376	-0.069
Mof_C 	C 	0.21663	0.63303	0.6655	0.273
Mof_H 	H 	0.2039	0.6532	0.6556	-0.075
Mof_C 	C 	0.25503	0.57293	0.69469	-0.294
Mof_H 	H 	0.2683	0.553	0.7045	0.123
Mof_C 	C 	0.21856	0.59999	0.64592	-0.296
Mof_H 	H 	0.207	0.5982	0.6229	0.123
Mof_C 	C 	0.23752	0.56933	0.66001	0.177
Mof_C 	C 	0.23975	0.53388	0.63894	-0.046
Mof_C 	C 	0.24043	0.53345	0.60045	-0.052
Mof_H 	H 	0.2412	0.556	0.5877	0.04
Mof_C 	C 	0.2228	0.4741	0.5207	-0.042
Mof_H 	H 	0.2102	0.4539	0.534	0.033
Mof_C 	C 	0.2596	0.4752	0.52035	-0.039
Mof_H 	H 	0.2735	0.4557	0.5335	0.036
Mof_O 	O 	0.78741	0.69774	0.29288	-1.192
Mof_O 	O 	0.75146	0.67336	0.24805	-1.174
Mof_C 	C 	0.76828	0.67144	0.27876	0.919
Mof_C 	C 	0.76612	0.63606	0.29979	-0.423
Mof_C 	C 	0.74738	0.60589	0.28566	0.275
Mof_H 	H 	0.7361	0.6077	0.2624	-0.069
Mof_C 	C 	0.78337	0.63303	0.3345	0.273
Mof_H 	H 	0.7961	0.6532	0.3444	-0.075
Mof_C 	C 	0.74497	0.57293	0.30531	-0.294
Mof_H 	H 	0.7317	0.553	0.2955	0.123
Mof_C 	C 	0.78144	0.59999	0.35408	-0.296
Mof_H 	H 	0.793	0.5982	0.3771	0.123
Mof_C 	C 	0.76248	0.56933	0.33999	0.177
Mof_C 	C 	0.76025	0.53388	0.36106	-0.046
Mof_C 	C 	0.75957	0.53345	0.39955	-0.052
Mof_H 	H 	0.7588	0.556	0.4123	0.04
Mof_C 	C 	0.7772	0.4741	0.4793	-0.042
Mof_H 	H 	0.7898	0.4539	0.466	0.033
Mof_C 	C 	0.7404	0.4752	0.47965	-0.039
Mof_H 	H 	0.7265	0.4557	0.4665	0.036
Mof_O 	O 	0.78741	0.30226	0.70712	-1.192
Mof_O 	O 	0.75146	0.32664	0.75195	-1.174
Mof_C 	C 	0.76828	0.32856	0.72124	0.919
Mof_C 	C 	0.76612	0.36394	0.70021	-0.423
Mof_C 	C 	0.74738	0.39411	0.71434	0.275
Mof_H 	H 	0.7361	0.3923	0.7376	-0.069
Mof_C 	C 	0.78337	0.36697	0.6655	0.273
Mof_H 	H 	0.7961	0.3468	0.6556	-0.075
Mof_C 	C 	0.74497	0.42707	0.69469	-0.294
Mof_H 	H 	0.7317	0.447	0.7045	0.123
Mof_C 	C 	0.78144	0.40001	0.64592	-0.296
Mof_H 	H 	0.793	0.4018	0.6229	0.123
Mof_C 	C 	0.76248	0.43067	0.66001	0.177
Mof_C 	C 	0.76025	0.46612	0.63894	-0.046
Mof_C 	C 	0.75957	0.46655	0.60045	-0.052
Mof_H 	H 	0.7588	0.444	0.5877	0.04
Mof_C 	C 	0.7772	0.5259	0.5207	-0.042
Mof_H 	H 	0.7898	0.5461	0.534	0.033
Mof_C 	C 	0.7404	0.5248	0.52035	-0.039
Mof_H 	H 	0.7265	0.5443	0.5335	0.036
Mof_O 	O 	0.29288	0.21259	0.30226	-1.192
Mof_O 	O 	0.24805	0.24854	0.32664	-1.174
Mof_C 	C 	0.27876	0.23172	0.32856	0.919
Mof_C 	C 	0.29979	0.23388	0.36394	-0.423
Mof_C 	C 	0.28566	0.25262	0.39411	0.275
Mof_H 	H 	0.2624	0.2639	0.3923	-0.069
Mof_C 	C 	0.3345	0.21663	0.36697	0.273
Mof_H 	H 	0.3444	0.2039	0.3468	-0.075
Mof_C 	C 	0.30531	0.25503	0.42707	-0.294
Mof_H 	H 	0.2955	0.2683	0.447	0.123
Mof_C 	C 	0.35408	0.21856	0.40001	-0.296
Mof_H 	H 	0.3771	0.207	0.4018	0.123
Mof_C 	C 	0.33999	0.23752	0.43067	0.177
Mof_C 	C 	0.36106	0.23975	0.46612	-0.046
Mof_C 	C 	0.39955	0.24043	0.46655	-0.052
Mof_H 	H 	0.4123	0.2412	0.444	0.04
Mof_C 	C 	0.4793	0.2228	0.5259	-0.042
Mof_H 	H 	0.466	0.2102	0.5461	0.033
Mof_C 	C 	0.47965	0.2596	0.5248	-0.039
Mof_H 	H 	0.4665	0.2735	0.5443	0.036
Mof_O 	O 	0.70712	0.21259	0.69774	-1.192
Mof_O 	O 	0.75195	0.24854	0.67336	-1.174
Mof_C 	C 	0.72124	0.23172	0.67144	0.919
Mof_C 	C 	0.70021	0.23388	0.63606	-0.423
Mof_C 	C 	0.71434	0.25262	0.60589	0.275
Mof_H 	H 	0.7376	0.2639	0.6077	-0.069
Mof_C 	C 	0.6655	0.21663	0.63303	0.273
Mof_H 	H 	0.6556	0.2039	0.6532	-0.075
Mof_C 	C 	0.69469	0.25503	0.57293	-0.294
Mof_H 	H 	0.7045	0.2683	0.553	0.123
Mof_C 	C 	0.64592	0.21856	0.59999	-0.296
Mof_H 	H 	0.6229	0.207	0.5982	0.123
Mof_C 	C 	0.66001	0.23752	0.56933	0.177
Mof_C 	C 	0.63894	0.23975	0.53388	-0.046
Mof_C 	C 	0.60045	0.24043	0.53345	-0.052
Mof_H 	H 	0.5877	0.2412	0.556	0.04
Mof_C 	C 	0.5207	0.2228	0.4741	-0.042
Mof_H 	H 	0.534	0.2102	0.4539	0.033
Mof_C 	C 	0.52035	0.2596	0.4752	-0.039
Mof_H 	H 	0.5335	0.2735	0.4557	0.036
Mof_O 	O 	0.29288	0.78741	0.69774	-1.192
Mof_O 	O 	0.24805	0.75146	0.67336	-1.174
Mof_C 	C 	0.27876	0.76828	0.67144	0.919
Mof_C 	C 	0.29979	0.76612	0.63606	-0.423
Mof_C 	C 	0.28566	0.74738	0.60589	0.275
Mof_H 	H 	0.2624	0.7361	0.6077	-0.069
Mof_C 	C 	0.3345	0.78337	0.63303	0.273
Mof_H 	H 	0.3444	0.7961	0.6532	-0.075
Mof_C 	C 	0.30531	0.74497	0.57293	-0.294
Mof_H 	H 	0.2955	0.7317	0.553	0.123
Mof_C 	C 	0.35408	0.78144	0.59999	-0.296
Mof_H 	H 	0.3771	0.793	0.5982	0.123
Mof_C 	C 	0.33999	0.76248	0.56933	0.177
Mof_C 	C 	0.36106	0.76025	0.53388	-0.046
Mof_C 	C 	0.39955	0.75957	0.53345	-0.052
Mof_H 	H 	0.4123	0.7588	0.556	0.04
Mof_C 	C 	0.4793	0.7772	0.4741	-0.042
Mof_H 	H 	0.466	0.7898	0.4539	0.033
Mof_C 	C 	0.47965	0.7404	0.4752	-0.039
Mof_H 	H 	0.4665	0.7265	0.4557	0.036
Mof_O 	O 	0.70712	0.78741	0.30226	-1.192
Mof_O 	O 	0.75195	0.75146	0.32664	-1.174
Mof_C 	C 	0.72124	0.76828	0.32856	0.919
Mof_C 	C 	0.70021	0.76612	0.36394	-0.423
Mof_C 	C 	0.71434	0.74738	0.39411	0.275
Mof_H 	H 	0.7376	0.7361	0.3923	-0.069
Mof_C 	C 	0.6655	0.78337	0.36697	0.273
Mof_H 	H 	0.6556	0.7961	0.3468	-0.075
Mof_C 	C 	0.69469	0.74497	0.42707	-0.294
Mof_H 	H 	0.7045	0.7317	0.447	0.123
Mof_C 	C 	0.64592	0.78144	0.40001	-0.296
Mof_H 	H 	0.6229	0.793	0.4018	0.123
Mof_C 	C 	0.66001	0.76248	0.43067	0.177
Mof_C 	C 	0.63894	0.76025	0.46612	-0.046
Mof_C 	C 	0.60045	0.75957	0.46655	-0.052
Mof_H 	H 	0.5877	0.7588	0.444	0.04
Mof_C 	C 	0.5207	0.7772	0.5259	-0.042
Mof_H 	H 	0.534	0.7898	0.5461	0.033
Mof_C 	C 	0.52035	0.7404	0.5248	-0.039
Mof_H 	H 	0.5335	0.7265	0.5443	0.036
Mof_O 	O 	0.79288	0.80226	0.28741	-1.192
Mof_O 	O 	0.74805	0.82664	0.25146	-1.174
Mof_C 	C 	0.77876	0.82856	0.26828	0.919
Mof_C 	C 	0.79979	0.86394	0.26612	-0.423
Mof_C 	C 	0.78566	0.89411	0.24738	0.275
Mof_H 	H 	0.7624	0.8923	0.2361	-0.069
Mof_C 	C 	0.8345	0.86697	0.28337	0.273
Mof_H 	H 	0.8444	0.8468	0.2961	-0.075
Mof_C 	C 	0.80531	0.92707	0.24497	-0.294
Mof_H 	H 	0.7955	0.947	0.2317	0.123
Mof_C 	C 	0.85408	0.90001	0.28144	-0.296
Mof_H 	H 	0.8771	0.9018	0.293	0.123
Mof_C 	C 	0.83999	0.93067	0.26248	0.177
Mof_C 	C 	0.86106	0.96612	0.26025	-0.046
Mof_C 	C 	0.89955	0.96655	0.25957	-0.052
Mof_H 	H 	0.9123	0.944	0.2588	0.04
Mof_C 	C 	0.9793	0.0259	0.2772	-0.042
Mof_H 	H 	0.966	0.0461	0.2898	0.032
Mof_C 	C 	0.97965	0.0248	0.2404	-0.039
Mof_H 	H 	0.9665	0.0443	0.2265	0.036
Mof_O 	O 	0.20712	0.19774	0.28741	-1.192
Mof_O 	O 	0.25195	0.17336	0.25146	-1.174
Mof_C 	C 	0.22124	0.17144	0.26828	0.919
Mof_C 	C 	0.20021	0.13606	0.26612	-0.423
Mof_C 	C 	0.21434	0.10589	0.24738	0.275
Mof_H 	H 	0.2376	0.1077	0.2361	-0.069
Mof_C 	C 	0.1655	0.13303	0.28337	0.273
Mof_H 	H 	0.1556	0.1532	0.2961	-0.075
Mof_C 	C 	0.19469	0.07293	0.24497	-0.294
Mof_H 	H 	0.2045	0.053	0.2317	0.123
Mof_C 	C 	0.14592	0.09999	0.28144	-0.296
Mof_H 	H 	0.1229	0.0982	0.293	0.123
Mof_C 	C 	0.16001	0.06933	0.26248	0.177
Mof_C 	C 	0.13894	0.03388	0.26025	-0.047
Mof_C 	C 	0.10045	0.03345	0.25957	-0.052
Mof_H 	H 	0.0877	0.056	0.2588	0.04
Mof_C 	C 	0.0207	0.9741	0.2772	-0.043
Mof_H 	H 	0.034	0.9539	0.2898	0.033
Mof_C 	C 	0.02035	0.9752	0.2404	-0.039
Mof_H 	H 	0.0335	0.9557	0.2265	0.036
Mof_O 	O 	0.79288	0.19774	0.71259	-1.192
Mof_O 	O 	0.74805	0.17336	0.74854	-1.174
Mof_C 	C 	0.77876	0.17144	0.73172	0.919
Mof_C 	C 	0.79979	0.13606	0.73388	-0.423
Mof_C 	C 	0.78566	0.10589	0.75262	0.275
Mof_H 	H 	0.7624	0.1077	0.7639	-0.069
Mof_C 	C 	0.8345	0.13303	0.71663	0.273
Mof_H 	H 	0.8444	0.1532	0.7039	-0.075
Mof_C 	C 	0.80531	0.07293	0.75503	-0.294
Mof_H 	H 	0.7955	0.053	0.7683	0.123
Mof_C 	C 	0.85408	0.09999	0.71856	-0.296
Mof_H 	H 	0.8771	0.0982	0.707	0.123
Mof_C 	C 	0.83999	0.06933	0.73752	0.177
Mof_C 	C 	0.86106	0.03388	0.73975	-0.046
Mof_C 	C 	0.89955	0.03345	0.74043	-0.053
Mof_H 	H 	0.9123	0.056	0.7412	0.041
Mof_C 	C 	0.9793	0.9741	0.7228	-0.042
Mof_H 	H 	0.966	0.9539	0.7102	0.032
Mof_C 	C 	0.97965	0.9752	0.7596	-0.038
Mof_H 	H 	0.9665	0.9557	0.7735	0.036
Mof_O 	O 	0.20712	0.80226	0.71259	-1.192
Mof_O 	O 	0.25195	0.82664	0.74854	-1.174
Mof_C 	C 	0.22124	0.82856	0.73172	0.919
Mof_C 	C 	0.20021	0.86394	0.73388	-0.423
Mof_C 	C 	0.21434	0.89411	0.75262	0.275
Mof_H 	H 	0.2376	0.8923	0.7639	-0.069
Mof_C 	C 	0.1655	0.86697	0.71663	0.273
Mof_H 	H 	0.1556	0.8468	0.7039	-0.075
Mof_C 	C 	0.19469	0.92707	0.75503	-0.294
Mof_H 	H 	0.2045	0.947	0.7683	0.123
Mof_C 	C 	0.14592	0.90001	0.71856	-0.296
Mof_H 	H 	0.1229	0.9018	0.707	0.123
Mof_C 	C 	0.16001	0.93067	0.73752	0.177
Mof_C 	C 	0.13894	0.96612	0.73975	-0.046
Mof_C 	C 	0.10045	0.96655	0.74043	-0.052
Mof_H 	H 	0.0877	0.944	0.7412	0.04
Mof_C 	C 	0.0207	0.0259	0.7228	-0.043
Mof_H 	H 	0.034	0.0461	0.7102	0.033
Mof_C 	C 	0.02035	0.0248	0.7596	-0.039
Mof_H 	H 	0.0335	0.0443	0.7735	0.036
Mof_O 	O 	0.80226	0.71259	0.20712	-1.192
Mof_O 	O 	0.82664	0.74854	0.25195	-1.174
Mof_C 	C 	0.82856	0.73172	0.22124	0.919
Mof_C 	C 	0.86394	0.73388	0.20021	-0.423
Mof_C 	C 	0.89411	0.75262	0.21434	0.275
Mof_H 	H 	0.8923	0.7639	0.2376	-0.069
Mof_C 	C 	0.86697	0.71663	0.1655	0.273
Mof_H 	H 	0.8468	0.7039	0.1556	-0.075
Mof_C 	C 	0.92707	0.75503	0.19469	-0.294
Mof_H 	H 	0.947	0.7683	0.2045	0.123
Mof_C 	C 	0.90001	0.71856	0.14592	-0.296
Mof_H 	H 	0.9018	0.707	0.1229	0.123
Mof_C 	C 	0.93067	0.73752	0.16001	0.177
Mof_C 	C 	0.96612	0.73975	0.13894	-0.046
Mof_C 	C 	0.96655	0.74043	0.10045	-0.052
Mof_H 	H 	0.944	0.7412	0.0877	0.04
Mof_C 	C 	0.0259	0.7228	0.0207	-0.043
Mof_H 	H 	0.0461	0.7102	0.034	0.033
Mof_C 	C 	0.0248	0.7596	0.02035	-0.039
Mof_H 	H 	0.0443	0.7735	0.0335	0.036
Mof_O 	O 	0.19774	0.71259	0.79288	-1.192
Mof_O 	O 	0.17336	0.74854	0.74805	-1.174
Mof_C 	C 	0.17144	0.73172	0.77876	0.919
Mof_C 	C 	0.13606	0.73388	0.79979	-0.423
Mof_C 	C 	0.10589	0.75262	0.78566	0.275
Mof_H 	H 	0.1077	0.7639	0.7624	-0.069
Mof_C 	C 	0.13303	0.71663	0.8345	0.273
Mof_H 	H 	0.1532	0.7039	0.8444	-0.075
Mof_C 	C 	0.07293	0.75503	0.80531	-0.294
Mof_H 	H 	0.053	0.7683	0.7955	0.123
Mof_C 	C 	0.09999	0.71856	0.85408	-0.296
Mof_H 	H 	0.0982	0.707	0.8771	0.123
Mof_C 	C 	0.06933	0.73752	0.83999	0.177
Mof_C 	C 	0.03388	0.73975	0.86106	-0.046
Mof_C 	C 	0.03345	0.74043	0.89955	-0.053
Mof_H 	H 	0.056	0.7412	0.9123	0.041
Mof_C 	C 	0.9741	0.7228	0.9793	-0.042
Mof_H 	H 	0.9539	0.7102	0.966	0.032
Mof_C 	C 	0.9752	0.7596	0.97965	-0.038
Mof_H 	H 	0.9557	0.7735	0.9665	0.036
Mof_O 	O 	0.19774	0.28741	0.20712	-1.192
Mof_O 	O 	0.17336	0.25146	0.25195	-1.174
Mof_C 	C 	0.17144	0.26828	0.22124	0.919
Mof_C 	C 	0.13606	0.26612	0.20021	-0.423
Mof_C 	C 	0.10589	0.24738	0.21434	0.275
Mof_H 	H 	0.1077	0.2361	0.2376	-0.069
Mof_C 	C 	0.13303	0.28337	0.1655	0.273
Mof_H 	H 	0.1532	0.2961	0.1556	-0.075
Mof_C 	C 	0.07293	0.24497	0.19469	-0.294
Mof_H 	H 	0.053	0.2317	0.2045	0.123
Mof_C 	C 	0.09999	0.28144	0.14592	-0.296
Mof_H 	H 	0.0982	0.293	0.1229	0.123
Mof_C 	C 	0.06933	0.26248	0.16001	0.177
Mof_C 	C 	0.03388	0.26025	0.13894	-0.047
Mof_C 	C 	0.03345	0.25957	0.10045	-0.052
Mof_H 	H 	0.056	0.2588	0.0877	0.04
Mof_C 	C 	0.9741	0.2772	0.0207	-0.043
Mof_H 	H 	0.9539	0.2898	0.034	0.033
Mof_C 	C 	0.9752	0.2404	0.02035	-0.039
Mof_H 	H 	0.9557	0.2265	0.0335	0.036
Mof_O 	O 	0.80226	0.28741	0.79288	-1.192
Mof_O 	O 	0.82664	0.25146	0.74805	-1.174
Mof_C 	C 	0.82856	0.26828	0.77876	0.919
Mof_C 	C 	0.86394	0.26612	0.79979	-0.423
Mof_C 	C 	0.89411	0.24738	0.78566	0.275
Mof_H 	H 	0.8923	0.2361	0.7624	-0.069
Mof_C 	C 	0.86697	0.28337	0.8345	0.273
Mof_H 	H 	0.8468	0.2961	0.8444	-0.075
Mof_C 	C 	0.92707	0.24497	0.80531	-0.294
Mof_H 	H 	0.947	0.2317	0.7955	0.123
Mof_C 	C 	0.90001	0.28144	0.85408	-0.296
Mof_H 	H 	0.9018	0.293	0.8771	0.123
Mof_C 	C 	0.93067	0.26248	0.83999	0.177
Mof_C 	C 	0.96612	0.26025	0.86106	-0.046
Mof_C 	C 	0.96655	0.25957	0.89955	-0.052
Mof_H 	H 	0.944	0.2588	0.9123	0.04
Mof_C 	C 	0.0259	0.2772	0.9793	-0.042
Mof_H 	H 	0.0461	0.2898	0.966	0.032
Mof_C 	C 	0.0248	0.2404	0.97965	-0.039
Mof_H 	H 	0.0443	0.2265	0.9665	0.036
Mof_O 	O 	0.71259	0.79288	0.19774	-1.192
Mof_O 	O 	0.74854	0.74805	0.17336	-1.174
Mof_C 	C 	0.73172	0.77876	0.17144	0.919
Mof_C 	C 	0.73388	0.79979	0.13606	-0.423
Mof_C 	C 	0.75262	0.78566	0.10589	0.275
Mof_H 	H 	0.7639	0.7624	0.1077	-0.069
Mof_C 	C 	0.71663	0.8345	0.13303	0.273
Mof_H 	H 	0.7039	0.8444	0.1532	-0.075
Mof_C 	C 	0.75503	0.80531	0.07293	-0.294
Mof_H 	H 	0.7683	0.7955	0.053	0.123
Mof_C 	C 	0.71856	0.85408	0.09999	-0.296
Mof_H 	H 	0.707	0.8771	0.0982	0.123
Mof_C 	C 	0.73752	0.83999	0.06933	0.177
Mof_C 	C 	0.73975	0.86106	0.03388	-0.046
Mof_C 	C 	0.74043	0.89955	0.03345	-0.053
Mof_H 	H 	0.7412	0.9123	0.056	0.041
Mof_C 	C 	0.7228	0.9793	0.9741	-0.042
Mof_H 	H 	0.7102	0.966	0.9539	0.032
Mof_C 	C 	0.7596	0.97965	0.9752	-0.038
Mof_H 	H 	0.7735	0.9665	0.9557	0.036
Mof_O 	O 	0.71259	0.20712	0.80226	-1.192
Mof_O 	O 	0.74854	0.25195	0.82664	-1.174
Mof_C 	C 	0.73172	0.22124	0.82856	0.919
Mof_C 	C 	0.73388	0.20021	0.86394	-0.423
Mof_C 	C 	0.75262	0.21434	0.89411	0.275
Mof_H 	H 	0.7639	0.2376	0.8923	-0.069
Mof_C 	C 	0.71663	0.1655	0.86697	0.273
Mof_H 	H 	0.7039	0.1556	0.8468	-0.075
Mof_C 	C 	0.75503	0.19469	0.92707	-0.294
Mof_H 	H 	0.7683	0.2045	0.947	0.123
Mof_C 	C 	0.71856	0.14592	0.90001	-0.296
Mof_H 	H 	0.707	0.1229	0.9018	0.123
Mof_C 	C 	0.73752	0.16001	0.93067	0.177
Mof_C 	C 	0.73975	0.13894	0.96612	-0.046
Mof_C 	C 	0.74043	0.10045	0.96655	-0.052
Mof_H 	H 	0.7412	0.0877	0.944	0.04
Mof_C 	C 	0.7228	0.0207	0.0259	-0.043
Mof_H 	H 	0.7102	0.034	0.0461	0.033
Mof_C 	C 	0.7596	0.02035	0.0248	-0.039
Mof_H 	H 	0.7735	0.0335	0.0443	0.036
Mof_O 	O 	0.28741	0.79288	0.80226	-1.192
Mof_O 	O 	0.25146	0.74805	0.82664	-1.174
Mof_C 	C 	0.26828	0.77876	0.82856	0.919
Mof_C 	C 	0.26612	0.79979	0.86394	-0.423
Mof_C 	C 	0.24738	0.78566	0.89411	0.275
Mof_H 	H 	0.2361	0.7624	0.8923	-0.069
Mof_C 	C 	0.28337	0.8345	0.86697	0.273
Mof_H 	H 	0.2961	0.8444	0.8468	-0.075
Mof_C 	C 	0.24497	0.80531	0.92707	-0.294
Mof_H 	H 	0.2317	0.7955	0.947	0.123
Mof_C 	C 	0.28144	0.85408	0.90001	-0.296
Mof_H 	H 	0.293	0.8771	0.9018	0.123
Mof_C 	C 	0.26248	0.83999	0.93067	0.177
Mof_C 	C 	0.26025	0.86106	0.96612	-0.046
Mof_C 	C 	0.25957	0.89955	0.96655	-0.052
Mof_H 	H 	0.2588	0.9123	0.944	0.04
Mof_C 	C 	0.2772	0.9793	0.0259	-0.042
Mof_H 	H 	0.2898	0.966	0.0461	0.032
Mof_C 	C 	0.2404	0.97965	0.0248	-0.039
Mof_H 	H 	0.2265	0.9665	0.0443	0.036
Mof_O 	O 	0.28741	0.20712	0.19774	-1.192
Mof_O 	O 	0.25146	0.25195	0.17336	-1.174
Mof_C 	C 	0.26828	0.22124	0.17144	0.919
Mof_C 	C 	0.26612	0.20021	0.13606	-0.423
Mof_C 	C 	0.24738	0.21434	0.10589	0.275
Mof_H 	H 	0.2361	0.2376	0.1077	-0.069
Mof_C 	C 	0.28337	0.1655	0.13303	0.273
Mof_H 	H 	0.2961	0.1556	0.1532	-0.075
Mof_C 	C 	0.24497	0.19469	0.07293	-0.294
Mof_H 	H 	0.2317	0.2045	0.053	0.123
Mof_C 	C 	0.28144	0.14592	0.09999	-0.296
Mof_H 	H 	0.293	0.1229	0.0982	0.123
Mof_C 	C 	0.26248	0.16001	0.06933	0.177
Mof_C 	C 	0.26025	0.13894	0.03388	-0.047
Mof_C 	C 	0.25957	0.10045	0.03345	-0.052
Mof_H 	H 	0.2588	0.0877	0.056	0.04
Mof_C 	C 	0.2772	0.0207	0.9741	-0.043
Mof_H 	H 	0.2898	0.034	0.9539	0.033
Mof_C 	C 	0.2404	0.02035	0.9752	-0.039
Mof_H 	H 	0.2265	0.0335	0.9557	0.036
Mof_O 	O 	0.69774	0.70712	0.78741	-1.192
Mof_O 	O 	0.67336	0.75195	0.75146	-1.174
Mof_C 	C 	0.67144	0.72124	0.76828	0.919
Mof_C 	C 	0.63606	0.70021	0.76612	-0.423
Mof_C 	C 	0.60589	0.71434	0.74738	0.275
Mof_H 	H 	0.6077	0.7376	0.7361	-0.069
Mof_C 	C 	0.63303	0.6655	0.78337	0.273
Mof_H 	H 	0.6532	0.6556	0.7961	-0.075
Mof_C 	C 	0.57293	0.69469	0.74497	-0.294
Mof_H 	H 	0.553	0.7045	0.7317	0.123
Mof_C 	C 	0.59999	0.64592	0.78144	-0.296
Mof_H 	H 	0.5982	0.6229	0.793	0.123
Mof_C 	C 	0.56933	0.66001	0.76248	0.177
Mof_C 	C 	0.53388	0.63894	0.76025	-0.046
Mof_C 	C 	0.53345	0.60045	0.75957	-0.052
Mof_H 	H 	0.556	0.5877	0.7588	0.04
Mof_C 	C 	0.4741	0.5207	0.7772	-0.042
Mof_H 	H 	0.4539	0.534	0.7898	0.033
Mof_C 	C 	0.4752	0.52035	0.7404	-0.039
Mof_H 	H 	0.4557	0.5335	0.7265	0.036
Mof_O 	O 	0.30226	0.29288	0.78741	-1.192
Mof_O 	O 	0.32664	0.24805	0.75146	-1.174
Mof_C 	C 	0.32856	0.27876	0.76828	0.919
Mof_C 	C 	0.36394	0.29979	0.76612	-0.423
Mof_C 	C 	0.39411	0.28566	0.74738	0.275
Mof_H 	H 	0.3923	0.2624	0.7361	-0.069
Mof_C 	C 	0.36697	0.3345	0.78337	0.273
Mof_H 	H 	0.3468	0.3444	0.7961	-0.075
Mof_C 	C 	0.42707	0.30531	0.74497	-0.294
Mof_H 	H 	0.447	0.2955	0.7317	0.123
Mof_C 	C 	0.40001	0.35408	0.78144	-0.296
Mof_H 	H 	0.4018	0.3771	0.793	0.123
Mof_C 	C 	0.43067	0.33999	0.76248	0.177
Mof_C 	C 	0.46612	0.36106	0.76025	-0.046
Mof_C 	C 	0.46655	0.39955	0.75957	-0.052
Mof_H 	H 	0.444	0.4123	0.7588	0.04
Mof_C 	C 	0.5259	0.4793	0.7772	-0.042
Mof_H 	H 	0.5461	0.466	0.7898	0.033
Mof_C 	C 	0.5248	0.47965	0.7404	-0.039
Mof_H 	H 	0.5443	0.4665	0.7265	0.036
Mof_O 	O 	0.30226	0.70712	0.21259	-1.192
Mof_O 	O 	0.32664	0.75195	0.24854	-1.174
Mof_C 	C 	0.32856	0.72124	0.23172	0.919
Mof_C 	C 	0.36394	0.70021	0.23388	-0.423
Mof_C 	C 	0.39411	0.71434	0.25262	0.275
Mof_H 	H 	0.3923	0.7376	0.2639	-0.069
Mof_C 	C 	0.36697	0.6655	0.21663	0.273
Mof_H 	H 	0.3468	0.6556	0.2039	-0.075
Mof_C 	C 	0.42707	0.69469	0.25503	-0.294
Mof_H 	H 	0.447	0.7045	0.2683	0.123
Mof_C 	C 	0.40001	0.64592	0.21856	-0.296
Mof_H 	H 	0.4018	0.6229	0.207	0.123
Mof_C 	C 	0.43067	0.66001	0.23752	0.177
Mof_C 	C 	0.46612	0.63894	0.23975	-0.046
Mof_C 	C 	0.46655	0.60045	0.24043	-0.052
Mof_H 	H 	0.444	0.5877	0.2412	0.04
Mof_C 	C 	0.5259	0.5207	0.2228	-0.042
Mof_H 	H 	0.5461	0.534	0.2102	0.033
Mof_C 	C 	0.5248	0.52035	0.2596	-0.039
Mof_H 	H 	0.5443	0.5335	0.2735	0.036
Mof_O 	O 	0.69774	0.29288	0.21259	-1.192
Mof_O 	O 	0.67336	0.24805	0.24854	-1.174
Mof_C 	C 	0.67144	0.27876	0.23172	0.919
Mof_C 	C 	0.63606	0.29979	0.23388	-0.423
Mof_C 	C 	0.60589	0.28566	0.25262	0.275
Mof_H 	H 	0.6077	0.2624	0.2639	-0.069
Mof_C 	C 	0.63303	0.3345	0.21663	0.273
Mof_H 	H 	0.6532	0.3444	0.2039	-0.075
Mof_C 	C 	0.57293	0.30531	0.25503	-0.294
Mof_H 	H 	0.553	0.2955	0.2683	0.123
Mof_C 	C 	0.59999	0.35408	0.21856	-0.296
Mof_H 	H 	0.5982	0.3771	0.207	0.123
Mof_C 	C 	0.56933	0.33999	0.23752	0.177
Mof_C 	C 	0.53388	0.36106	0.23975	-0.046
Mof_C 	C 	0.53345	0.39955	0.24043	-0.052
Mof_H 	H 	0.556	0.4123	0.2412	0.04
Mof_C 	C 	0.4741	0.4793	0.2228	-0.042
Mof_H 	H 	0.4539	0.466	0.2102	0.033
Mof_C 	C 	0.4752	0.47965	0.2596	-0.039
Mof_H 	H 	0.4557	0.4665	0.2735	0.036
Mof_O 	O 	0.78741	0.69774	0.70712	-1.192
Mof_O 	O 	0.75146	0.67336	0.75195	-1.174
Mof_C 	C 	0.76828	0.67144	0.72124	0.919
Mof_C 	C 	0.76612	0.63606	0.70021	-0.423
Mof_C 	C 	0.74738	0.60589	0.71434	0.275
Mof_H 	H 	0.7361	0.6077	0.7376	-0.069
Mof_C 	C 	0.78337	0.63303	0.6655	0.273
Mof_H 	H 	0.7961	0.6532	0.6556	-0.075
Mof_C 	C 	0.74497	0.57293	0.69469	-0.294
Mof_H 	H 	0.7317	0.553	0.7045	0.123
Mof_C 	C 	0.78144	0.59999	0.64592	-0.296
Mof_H 	H 	0.793	0.5982	0.6229	0.123
Mof_C 	C 	0.76248	0.56933	0.66001	0.177
Mof_C 	C 	0.76025	0.53388	0.63894	-0.046
Mof_C 	C 	0.75957	0.53345	0.60045	-0.052
Mof_H 	H 	0.7588	0.556	0.5877	0.04
Mof_C 	C 	0.7772	0.4741	0.5207	-0.042
Mof_H 	H 	0.7898	0.4539	0.534	0.033
Mof_C 	C 	0.7404	0.4752	0.52035	-0.039
Mof_H 	H 	0.7265	0.4557	0.5335	0.036
Mof_O 	O 	0.78741	0.30226	0.29288	-1.192
Mof_O 	O 	0.75146	0.32664	0.24805	-1.174
Mof_C 	C 	0.76828	0.32856	0.27876	0.919
Mof_C 	C 	0.76612	0.36394	0.29979	-0.423
Mof_C 	C 	0.74738	0.39411	0.28566	0.275
Mof_H 	H 	0.7361	0.3923	0.2624	-0.069
Mof_C 	C 	0.78337	0.36697	0.3345	0.273
Mof_H 	H 	0.7961	0.3468	0.3444	-0.075
Mof_C 	C 	0.74497	0.42707	0.30531	-0.294
Mof_H 	H 	0.7317	0.447	0.2955	0.123
Mof_C 	C 	0.78144	0.40001	0.35408	-0.296
Mof_H 	H 	0.793	0.4018	0.3771	0.123
Mof_C 	C 	0.76248	0.43067	0.33999	0.177
Mof_C 	C 	0.76025	0.46612	0.36106	-0.046
Mof_C 	C 	0.75957	0.46655	0.39955	-0.052
Mof_H 	H 	0.7588	0.444	0.4123	0.04
Mof_C 	C 	0.7772	0.5259	0.4793	-0.042
Mof_H 	H 	0.7898	0.5461	0.466	0.033
Mof_C 	C 	0.7404	0.5248	0.47965	-0.039
Mof_H 	H 	0.7265	0.5443	0.4665	0.036
Mof_O 	O 	0.21259	0.30226	0.70712	-1.192
Mof_O 	O 	0.24854	0.32664	0.75195	-1.174
Mof_C 	C 	0.23172	0.32856	0.72124	0.919
Mof_C 	C 	0.23388	0.36394	0.70021	-0.423
Mof_C 	C 	0.25262	0.39411	0.71434	0.275
Mof_H 	H 	0.2639	0.3923	0.7376	-0.069
Mof_C 	C 	0.21663	0.36697	0.6655	0.273
Mof_H 	H 	0.2039	0.3468	0.6556	-0.075
Mof_C 	C 	0.25503	0.42707	0.69469	-0.294
Mof_H 	H 	0.2683	0.447	0.7045	0.123
Mof_C 	C 	0.21856	0.40001	0.64592	-0.296
Mof_H 	H 	0.207	0.4018	0.6229	0.123
Mof_C 	C 	0.23752	0.43067	0.66001	0.177
Mof_C 	C 	0.23975	0.46612	0.63894	-0.046
Mof_C 	C 	0.24043	0.46655	0.60045	-0.052
Mof_H 	H 	0.2412	0.444	0.5877	0.04
Mof_C 	C 	0.2228	0.5259	0.5207	-0.042
Mof_H 	H 	0.2102	0.5461	0.534	0.033
Mof_C 	C 	0.2596	0.5248	0.52035	-0.039
Mof_H 	H 	0.2735	0.5443	0.5335	0.036
Mof_O 	O 	0.21259	0.69774	0.29288	-1.192
Mof_O 	O 	0.24854	0.67336	0.24805	-1.174
Mof_C 	C 	0.23172	0.67144	0.27876	0.919
Mof_C 	C 	0.23388	0.63606	0.29979	-0.423
Mof_C 	C 	0.25262	0.60589	0.28566	0.275
Mof_H 	H 	0.2639	0.6077	0.2624	-0.069
Mof_C 	C 	0.21663	0.63303	0.3345	0.273
Mof_H 	H 	0.2039	0.6532	0.3444	-0.075
Mof_C 	C 	0.25503	0.57293	0.30531	-0.294
Mof_H 	H 	0.2683	0.553	0.2955	0.123
Mof_C 	C 	0.21856	0.59999	0.35408	-0.296
Mof_H 	H 	0.207	0.5982	0.3771	0.123
Mof_C 	C 	0.23752	0.56933	0.33999	0.177
Mof_C 	C 	0.23975	0.53388	0.36106	-0.046
Mof_C 	C 	0.24043	0.53345	0.39955	-0.052
Mof_H 	H 	0.2412	0.556	0.4123	0.04
Mof_C 	C 	0.2228	0.4741	0.4793	-0.042
Mof_H 	H 	0.2102	0.4539	0.466	0.033
Mof_C 	C 	0.2596	0.4752	0.47965	-0.039
Mof_H 	H 	0.2735	0.4557	0.4665	0.036
Mof_O 	O 	0.70712	0.78741	0.69774	-1.192
Mof_O 	O 	0.75195	0.75146	0.67336	-1.174
Mof_C 	C 	0.72124	0.76828	0.67144	0.919
Mof_C 	C 	0.70021	0.76612	0.63606	-0.423
Mof_C 	C 	0.71434	0.74738	0.60589	0.275
Mof_H 	H 	0.7376	0.7361	0.6077	-0.069
Mof_C 	C 	0.6655	0.78337	0.63303	0.273
Mof_H 	H 	0.6556	0.7961	0.6532	-0.075
Mof_C 	C 	0.69469	0.74497	0.57293	-0.294
Mof_H 	H 	0.7045	0.7317	0.553	0.123
Mof_C 	C 	0.64592	0.78144	0.59999	-0.296
Mof_H 	H 	0.6229	0.793	0.5982	0.123
Mof_C 	C 	0.66001	0.76248	0.56933	0.177
Mof_C 	C 	0.63894	0.76025	0.53388	-0.046
Mof_C 	C 	0.60045	0.75957	0.53345	-0.052
Mof_H 	H 	0.5877	0.7588	0.556	0.04
Mof_C 	C 	0.5207	0.7772	0.4741	-0.042
Mof_H 	H 	0.534	0.7898	0.4539	0.033
Mof_C 	C 	0.52035	0.7404	0.4752	-0.039
Mof_H 	H 	0.5335	0.7265	0.4557	0.036
Mof_O 	O 	0.29288	0.78741	0.30226	-1.192
Mof_O 	O 	0.24805	0.75146	0.32664	-1.174
Mof_C 	C 	0.27876	0.76828	0.32856	0.919
Mof_C 	C 	0.29979	0.76612	0.36394	-0.423
Mof_C 	C 	0.28566	0.74738	0.39411	0.275
Mof_H 	H 	0.2624	0.7361	0.3923	-0.069
Mof_C 	C 	0.3345	0.78337	0.36697	0.273
Mof_H 	H 	0.3444	0.7961	0.3468	-0.075
Mof_C 	C 	0.30531	0.74497	0.42707	-0.294
Mof_H 	H 	0.2955	0.7317	0.447	0.123
Mof_C 	C 	0.35408	0.78144	0.40001	-0.296
Mof_H 	H 	0.3771	0.793	0.4018	0.123
Mof_C 	C 	0.33999	0.76248	0.43067	0.177
Mof_C 	C 	0.36106	0.76025	0.46612	-0.046
Mof_C 	C 	0.39955	0.75957	0.46655	-0.052
Mof_H 	H 	0.4123	0.7588	0.444	0.04
Mof_C 	C 	0.4793	0.7772	0.5259	-0.042
Mof_H 	H 	0.466	0.7898	0.5461	0.033
Mof_C 	C 	0.47965	0.7404	0.5248	-0.039
Mof_H 	H 	0.4665	0.7265	0.5443	0.036
Mof_O 	O 	0.70712	0.21259	0.30226	-1.192
Mof_O 	O 	0.75195	0.24854	0.32664	-1.174
Mof_C 	C 	0.72124	0.23172	0.32856	0.919
Mof_C 	C 	0.70021	0.23388	0.36394	-0.423
Mof_C 	C 	0.71434	0.25262	0.39411	0.275
Mof_H 	H 	0.7376	0.2639	0.3923	-0.069
Mof_C 	C 	0.6655	0.21663	0.36697	0.273
Mof_H 	H 	0.6556	0.2039	0.3468	-0.075
Mof_C 	C 	0.69469	0.25503	0.42707	-0.294
Mof_H 	H 	0.7045	0.2683	0.447	0.123
Mof_C 	C 	0.64592	0.21856	0.40001	-0.296
Mof_H 	H 	0.6229	0.207	0.4018	0.123
Mof_C 	C 	0.66001	0.23752	0.43067	0.177
Mof_C 	C 	0.63894	0.23975	0.46612	-0.046
Mof_C 	C 	0.60045	0.24043	0.46655	-0.052
Mof_H 	H 	0.5877	0.2412	0.444	0.04
Mof_C 	C 	0.5207	0.2228	0.5259	-0.042
Mof_H 	H 	0.534	0.2102	0.5461	0.033
Mof_C 	C 	0.52035	0.2596	0.5248	-0.039
Mof_H 	H 	0.5335	0.2735	0.5443	0.036
Mof_O 	O 	0.29288	0.21259	0.69774	-1.192
Mof_O 	O 	0.24805	0.24854	0.67336	-1.174
Mof_C 	C 	0.27876	0.23172	0.67144	0.919
Mof_C 	C 	0.29979	0.23388	0.63606	-0.423
Mof_C 	C 	0.28566	0.25262	0.60589	0.275
Mof_H 	H 	0.2624	0.2639	0.6077	-0.069
Mof_C 	C 	0.3345	0.21663	0.63303	0.273
Mof_H 	H 	0.3444	0.2039	0.6532	-0.075
Mof_C 	C 	0.30531	0.25503	0.57293	-0.294
Mof_H 	H 	0.2955	0.2683	0.553	0.123
Mof_C 	C 	0.35408	0.21856	0.59999	-0.296
Mof_H 	H 	0.3771	0.207	0.5982	0.123
Mof_C 	C 	0.33999	0.23752	0.56933	0.177
Mof_C 	C 	0.36106	0.23975	0.53388	-0.046
Mof_C 	C 	0.39955	0.24043	0.53345	-0.052
Mof_H 	H 	0.4123	0.2412	0.556	0.04
Mof_C 	C 	0.4793	0.2228	0.4741	-0.042
Mof_H 	H 	0.466	0.2102	0.4539	0.033
Mof_C 	C 	0.47965	0.2596	0.4752	-0.039
Mof_H 	H 	0.4665	0.2735	0.4557	0.036
Mof_O 	O 	0.20712	0.19774	0.71259	-1.192
Mof_O 	O 	0.25195	0.17336	0.74854	-1.174
Mof_C 	C 	0.22124	0.17144	0.73172	0.919
Mof_C 	C 	0.20021	0.13606	0.73388	-0.423
Mof_C 	C 	0.21434	0.10589	0.75262	0.275
Mof_H 	H 	0.2376	0.1077	0.7639	-0.069
Mof_C 	C 	0.1655	0.13303	0.71663	0.273
Mof_H 	H 	0.1556	0.1532	0.7039	-0.075
Mof_C 	C 	0.19469	0.07293	0.75503	-0.294
Mof_H 	H 	0.2045	0.053	0.7683	0.123
Mof_C 	C 	0.14592	0.09999	0.71856	-0.296
Mof_H 	H 	0.1229	0.0982	0.707	0.123
Mof_C 	C 	0.16001	0.06933	0.73752	0.177
Mof_C 	C 	0.13894	0.03388	0.73975	-0.047
Mof_C 	C 	0.10045	0.03345	0.74043	-0.052
Mof_H 	H 	0.0877	0.056	0.7412	0.04
Mof_C 	C 	0.0207	0.9741	0.7228	-0.043
Mof_H 	H 	0.034	0.9539	0.7102	0.033
Mof_C 	C 	0.02035	0.9752	0.7596	-0.039
Mof_H 	H 	0.0335	0.9557	0.7735	0.036
Mof_O 	O 	0.79288	0.80226	0.71259	-1.192
Mof_O 	O 	0.74805	0.82664	0.74854	-1.174
Mof_C 	C 	0.77876	0.82856	0.73172	0.919
Mof_C 	C 	0.79979	0.86394	0.73388	-0.423
Mof_C 	C 	0.78566	0.89411	0.75262	0.275
Mof_H 	H 	0.7624	0.8923	0.7639	-0.069
Mof_C 	C 	0.8345	0.86697	0.71663	0.273
Mof_H 	H 	0.8444	0.8468	0.7039	-0.075
Mof_C 	C 	0.80531	0.92707	0.75503	-0.294
Mof_H 	H 	0.7955	0.947	0.7683	0.123
Mof_C 	C 	0.85408	0.90001	0.71856	-0.296
Mof_H 	H 	0.8771	0.9018	0.707	0.123
Mof_C 	C 	0.83999	0.93067	0.73752	0.177
Mof_C 	C 	0.86106	0.96612	0.73975	-0.046
Mof_C 	C 	0.89955	0.96655	0.74043	-0.052
Mof_H 	H 	0.9123	0.944	0.7412	0.04
Mof_C 	C 	0.9793	0.0259	0.7228	-0.042
Mof_H 	H 	0.966	0.0461	0.7102	0.032
Mof_C 	C 	0.97965	0.0248	0.7596	-0.039
Mof_H 	H 	0.9665	0.0443	0.7735	0.036
Mof_O 	O 	0.20712	0.80226	0.28741	-1.192
Mof_O 	O 	0.25195	0.82664	0.25146	-1.174
Mof_C 	C 	0.22124	0.82856	0.26828	0.919
Mof_C 	C 	0.20021	0.86394	0.26612	-0.423
Mof_C 	C 	0.21434	0.89411	0.24738	0.275
Mof_H 	H 	0.2376	0.8923	0.2361	-0.069
Mof_C 	C 	0.1655	0.86697	0.28337	0.273
Mof_H 	H 	0.1556	0.8468	0.2961	-0.075
Mof_C 	C 	0.19469	0.92707	0.24497	-0.294
Mof_H 	H 	0.2045	0.947	0.2317	0.123
Mof_C 	C 	0.14592	0.90001	0.28144	-0.296
Mof_H 	H 	0.1229	0.9018	0.293	0.123
Mof_C 	C 	0.16001	0.93067	0.26248	0.177
Mof_C 	C 	0.13894	0.96612	0.26025	-0.046
Mof_C 	C 	0.10045	0.96655	0.25957	-0.052
Mof_H 	H 	0.0877	0.944	0.2588	0.04
Mof_C 	C 	0.0207	0.0259	0.2772	-0.043
Mof_H 	H 	0.034	0.0461	0.2898	0.033
Mof_C 	C 	0.02035	0.0248	0.2404	-0.039
Mof_H 	H 	0.0335	0.0443	0.2265	0.036
Mof_O 	O 	0.79288	0.19774	0.28741	-1.192
Mof_O 	O 	0.74805	0.17336	0.25146	-1.174
Mof_C 	C 	0.77876	0.17144	0.26828	0.919
Mof_C 	C 	0.79979	0.13606	0.26612	-0.423
Mof_C 	C 	0.78566	0.10589	0.24738	0.275
Mof_H 	H 	0.7624	0.1077	0.2361	-0.069
Mof_C 	C 	0.8345	0.13303	0.28337	0.273
Mof_H 	H 	0.8444	0.1532	0.2961	-0.075
Mof_C 	C 	0.80531	0.07293	0.24497	-0.294
Mof_H 	H 	0.7955	0.053	0.2317	0.123
Mof_C 	C 	0.85408	0.09999	0.28144	-0.296
Mof_H 	H 	0.8771	0.0982	0.293	0.123
Mof_C 	C 	0.83999	0.06933	0.26248	0.177
Mof_C 	C 	0.86106	0.03388	0.26025	-0.046
Mof_C 	C 	0.89955	0.03345	0.25957	-0.053
Mof_H 	H 	0.9123	0.056	0.2588	0.041
Mof_C 	C 	0.9793	0.9741	0.2772	-0.042
Mof_H 	H 	0.966	0.9539	0.2898	0.032
Mof_C 	C 	0.97965	0.9752	0.2404	-0.038
Mof_H 	H 	0.9665	0.9557	0.2265	0.036
Mof_O 	O 	0.19774	0.28741	0.79288	-1.192
Mof_O 	O 	0.17336	0.25146	0.74805	-1.174
Mof_C 	C 	0.17144	0.26828	0.77876	0.919
Mof_C 	C 	0.13606	0.26612	0.79979	-0.423
Mof_C 	C 	0.10589	0.24738	0.78566	0.275
Mof_H 	H 	0.1077	0.2361	0.7624	-0.069
Mof_C 	C 	0.13303	0.28337	0.8345	0.273
Mof_H 	H 	0.1532	0.2961	0.8444	-0.075
Mof_C 	C 	0.07293	0.24497	0.80531	-0.294
Mof_H 	H 	0.053	0.2317	0.7955	0.123
Mof_C 	C 	0.09999	0.28144	0.85408	-0.296
Mof_H 	H 	0.0982	0.293	0.8771	0.123
Mof_C 	C 	0.06933	0.26248	0.83999	0.177
Mof_C 	C 	0.03388	0.26025	0.86106	-0.046
Mof_C 	C 	0.03345	0.25957	0.89955	-0.053
Mof_H 	H 	0.056	0.2588	0.9123	0.041
Mof_C 	C 	0.9741	0.2772	0.9793	-0.042
Mof_H 	H 	0.9539	0.2898	0.966	0.032
Mof_C 	C 	0.9752	0.2404	0.97965	-0.038
Mof_H 	H 	0.9557	0.2265	0.9665	0.036
Mof_O 	O 	0.80226	0.28741	0.20712	-1.192
Mof_O 	O 	0.82664	0.25146	0.25195	-1.174
Mof_C 	C 	0.82856	0.26828	0.22124	0.919
Mof_C 	C 	0.86394	0.26612	0.20021	-0.423
Mof_C 	C 	0.89411	0.24738	0.21434	0.275
Mof_H 	H 	0.8923	0.2361	0.2376	-0.069
Mof_C 	C 	0.86697	0.28337	0.1655	0.273
Mof_H 	H 	0.8468	0.2961	0.1556	-0.075
Mof_C 	C 	0.92707	0.24497	0.19469	-0.294
Mof_H 	H 	0.947	0.2317	0.2045	0.123
Mof_C 	C 	0.90001	0.28144	0.14592	-0.296
Mof_H 	H 	0.9018	0.293	0.1229	0.123
Mof_C 	C 	0.93067	0.26248	0.16001	0.177
Mof_C 	C 	0.96612	0.26025	0.13894	-0.046
Mof_C 	C 	0.96655	0.25957	0.10045	-0.052
Mof_H 	H 	0.944	0.2588	0.0877	0.04
Mof_C 	C 	0.0259	0.2772	0.0207	-0.043
Mof_H 	H 	0.0461	0.2898	0.034	0.033
Mof_C 	C 	0.0248	0.2404	0.02035	-0.039
Mof_H 	H 	0.0443	0.2265	0.0335	0.036
Mof_O 	O 	0.80226	0.71259	0.79288	-1.192
Mof_O 	O 	0.82664	0.74854	0.74805	-1.174
Mof_C 	C 	0.82856	0.73172	0.77876	0.919
Mof_C 	C 	0.86394	0.73388	0.79979	-0.423
Mof_C 	C 	0.89411	0.75262	0.78566	0.275
Mof_H 	H 	0.8923	0.7639	0.7624	-0.069
Mof_C 	C 	0.86697	0.71663	0.8345	0.273
Mof_H 	H 	0.8468	0.7039	0.8444	-0.075
Mof_C 	C 	0.92707	0.75503	0.80531	-0.294
Mof_H 	H 	0.947	0.7683	0.7955	0.123
Mof_C 	C 	0.90001	0.71856	0.85408	-0.296
Mof_H 	H 	0.9018	0.707	0.8771	0.123
Mof_C 	C 	0.93067	0.73752	0.83999	0.177
Mof_C 	C 	0.96612	0.73975	0.86106	-0.046
Mof_C 	C 	0.96655	0.74043	0.89955	-0.052
Mof_H 	H 	0.944	0.7412	0.9123	0.04
Mof_C 	C 	0.0259	0.7228	0.9793	-0.042
Mof_H 	H 	0.0461	0.7102	0.966	0.032
Mof_C 	C 	0.0248	0.7596	0.97965	-0.039
Mof_H 	H 	0.0443	0.7735	0.9665	0.036
Mof_O 	O 	0.19774	0.71259	0.20712	-1.192
Mof_O 	O 	0.17336	0.74854	0.25195	-1.174
Mof_C 	C 	0.17144	0.73172	0.22124	0.919
Mof_C 	C 	0.13606	0.73388	0.20021	-0.423
Mof_C 	C 	0.10589	0.75262	0.21434	0.275
Mof_H 	H 	0.1077	0.7639	0.2376	-0.069
Mof_C 	C 	0.13303	0.71663	0.1655	0.273
Mof_H 	H 	0.1532	0.7039	0.1556	-0.075
Mof_C 	C 	0.07293	0.75503	0.19469	-0.294
Mof_H 	H 	0.053	0.7683	0.2045	0.123
Mof_C 	C 	0.09999	0.71856	0.14592	-0.296
Mof_H 	H 	0.0982	0.707	0.1229	0.123
Mof_C 	C 	0.06933	0.73752	0.16001	0.177
Mof_C 	C 	0.03388	0.73975	0.13894	-0.047
Mof_C 	C 	0.03345	0.74043	0.10045	-0.052
Mof_H 	H 	0.056	0.7412	0.0877	0.04
Mof_C 	C 	0.9741	0.7228	0.0207	-0.043
Mof_H 	H 	0.9539	0.7102	0.034	0.033
Mof_C 	C 	0.9752	0.7596	0.02035	-0.039
Mof_H 	H 	0.9557	0.7735	0.0335	0.036
Mof_O 	O 	0.28741	0.20712	0.80226	-1.192
Mof_O 	O 	0.25146	0.25195	0.82664	-1.174
Mof_C 	C 	0.26828	0.22124	0.82856	0.919
Mof_C 	C 	0.26612	0.20021	0.86394	-0.423
Mof_C 	C 	0.24738	0.21434	0.89411	0.275
Mof_H 	H 	0.2361	0.2376	0.8923	-0.069
Mof_C 	C 	0.28337	0.1655	0.86697	0.273
Mof_H 	H 	0.2961	0.1556	0.8468	-0.075
Mof_C 	C 	0.24497	0.19469	0.92707	-0.294
Mof_H 	H 	0.2317	0.2045	0.947	0.123
Mof_C 	C 	0.28144	0.14592	0.90001	-0.296
Mof_H 	H 	0.293	0.1229	0.9018	0.123
Mof_C 	C 	0.26248	0.16001	0.93067	0.177
Mof_C 	C 	0.26025	0.13894	0.96612	-0.046
Mof_C 	C 	0.25957	0.10045	0.96655	-0.052
Mof_H 	H 	0.2588	0.0877	0.944	0.04
Mof_C 	C 	0.2772	0.0207	0.0259	-0.043
Mof_H 	H 	0.2898	0.034	0.0461	0.033
Mof_C 	C 	0.2404	0.02035	0.0248	-0.039
Mof_H 	H 	0.2265	0.0335	0.0443	0.036
Mof_O 	O 	0.28741	0.79288	0.19774	-1.192
Mof_O 	O 	0.25146	0.74805	0.17336	-1.174
Mof_C 	C 	0.26828	0.77876	0.17144	0.919
Mof_C 	C 	0.26612	0.79979	0.13606	-0.423
Mof_C 	C 	0.24738	0.78566	0.10589	0.275
Mof_H 	H 	0.2361	0.7624	0.1077	-0.069
Mof_C 	C 	0.28337	0.8345	0.13303	0.273
Mof_H 	H 	0.2961	0.8444	0.1532	-0.075
Mof_C 	C 	0.24497	0.80531	0.07293	-0.294
Mof_H 	H 	0.2317	0.7955	0.053	0.123
Mof_C 	C 	0.28144	0.85408	0.09999	-0.296
Mof_H 	H 	0.293	0.8771	0.0982	0.123
Mof_C 	C 	0.26248	0.83999	0.06933	0.177
Mof_C 	C 	0.26025	0.86106	0.03388	-0.046
Mof_C 	C 	0.25957	0.89955	0.03345	-0.053
Mof_H 	H 	0.2588	0.9123	0.056	0.041
Mof_C 	C 	0.2772	0.9793	0.9741	-0.042
Mof_H 	H 	0.2898	0.966	0.9539	0.032
Mof_C 	C 	0.2404	0.97965	0.9752	-0.038
Mof_H 	H 	0.2265	0.9665	0.9557	0.036
Mof_O 	O 	0.71259	0.20712	0.19774	-1.192
Mof_O 	O 	0.74854	0.25195	0.17336	-1.174
Mof_C 	C 	0.73172	0.22124	0.17144	0.919
Mof_C 	C 	0.73388	0.20021	0.13606	-0.423
Mof_C 	C 	0.75262	0.21434	0.10589	0.275
Mof_H 	H 	0.7639	0.2376	0.1077	-0.069
Mof_C 	C 	0.71663	0.1655	0.13303	0.273
Mof_H 	H 	0.7039	0.1556	0.1532	-0.075
Mof_C 	C 	0.75503	0.19469	0.07293	-0.294
Mof_H 	H 	0.7683	0.2045	0.053	0.123
Mof_C 	C 	0.71856	0.14592	0.09999	-0.296
Mof_H 	H 	0.707	0.1229	0.0982	0.123
Mof_C 	C 	0.73752	0.16001	0.06933	0.177
Mof_C 	C 	0.73975	0.13894	0.03388	-0.047
Mof_C 	C 	0.74043	0.10045	0.03345	-0.052
Mof_H 	H 	0.7412	0.0877	0.056	0.04
Mof_C 	C 	0.7228	0.0207	0.9741	-0.043
Mof_H 	H 	0.7102	0.034	0.9539	0.033
Mof_C 	C 	0.7596	0.02035	0.9752	-0.039
Mof_H 	H 	0.7735	0.0335	0.9557	0.036
Mof_O 	O 	0.71259	0.79288	0.80226	-1.192
Mof_O 	O 	0.74854	0.74805	0.82664	-1.174
Mof_C 	C 	0.73172	0.77876	0.82856	0.919
Mof_C 	C 	0.73388	0.79979	0.86394	-0.423
Mof_C 	C 	0.75262	0.78566	0.89411	0.275
Mof_H 	H 	0.7639	0.7624	0.8923	-0.069
Mof_C 	C 	0.71663	0.8345	0.86697	0.273
Mof_H 	H 	0.7039	0.8444	0.8468	-0.075
Mof_C 	C 	0.75503	0.80531	0.92707	-0.294
Mof_H 	H 	0.7683	0.7955	0.947	0.123
Mof_C 	C 	0.71856	0.85408	0.90001	-0.296
Mof_H 	H 	0.707	0.8771	0.9018	0.123
Mof_C 	C 	0.73752	0.83999	0.93067	0.177
Mof_C 	C 	0.73975	0.86106	0.96612	-0.046
Mof_C 	C 	0.74043	0.89955	0.96655	-0.052
Mof_H 	H 	0.7412	0.9123	0.944	0.04
Mof_C 	C 	0.7228	0.9793	0.0259	-0.042
Mof_H 	H 	0.7102	0.966	0.0461	0.032
Mof_C 	C 	0.7596	0.97965	0.0248	-0.039
Mof_H 	H 	0.7735	0.9665	0.0443	0.036
Mof_Al	Al	0.25	0.28607	0.21393	4.183
Mof_Al	Al	0.75	0.71393	0.21393	4.183
Mof_Al	Al	0.75	0.28607	0.78607	4.183
Mof_Al	Al	0.25	0.71393	0.78607	4.183
Mof_Al	Al	0.21393	0.25	0.28607	4.183
Mof_Al	Al	0.21393	0.75	0.71393	4.183
Mof_Al	Al	0.78607	0.75	0.28607	4.183
Mof_Al	Al	0.78607	0.25	0.71393	4.183
Mof_Al	Al	0.28607	0.21393	0.25	4.183
Mof_Al	Al	0.71393	0.21393	0.75	4.183
Mof_Al	Al	0.28607	0.78607	0.75	4.183
Mof_Al	Al	0.71393	0.78607	0.25	4.183
Mof_Al	Al	0.75	0.71393	0.78607	4.183
Mof_Al	Al	0.25	0.28607	0.78607	4.183
Mof_Al	Al	0.25	0.71393	0.21393	4.183
Mof_Al	Al	0.75	0.28607	0.21393	4.183
Mof_Al	Al	0.78607	0.75	0.71393	4.183
Mof_Al	Al	0.78607	0.25	0.28607	4.183
Mof_Al	Al	0.21393	0.25	0.71393	4.183
Mof_Al	Al	0.21393	0.75	0.28607	4.183
Mof_Al	Al	0.71393	0.78607	0.75	4.183
Mof_Al	Al	0.28607	0.78607	0.25	4.183
Mof_Al	Al	0.71393	0.21393	0.25	4.183
Mof_Al	Al	0.28607	0.21393	0.75	4.183
Mof_O 	O 	0.25	0.25	0.25	-2.41
Mof_O 	O 	0.75	0.75	0.25	-2.41
Mof_O 	O 	0.75	0.25	0.75	-2.41
Mof_O 	O 	0.25	0.75	0.75	-2.41
Mof_O 	O 	0.75	0.75	0.75	-2.41
Mof_O 	O 	0.25	0.25	0.75	-2.41
Mof_O 	O 	0.25	0.75	0.25	-2.41
Mof_O 	O 	0.75	0.25	0.25	-2.41
Mof_C 	C 	0.5	0.34185	0.2389	-0.034
Mof_H 	H 	0.5	0.316	0.2378	0.032
Mof_C 	C 	0.5	0.42007	0.24	-0.003
Mof_C 	C 	0.5	0.45999	0.2411	0.035
Mof_C 	C 	0.5	0.65815	0.2389	-0.034
Mof_H 	H 	0.5	0.684	0.2378	0.032
Mof_C 	C 	0.5	0.57993	0.24	-0.003
Mof_C 	C 	0.5	0.54001	0.2411	0.035
Mof_C 	C 	0.5	0.34185	0.7611	-0.034
Mof_H 	H 	0.5	0.316	0.7622	0.032
Mof_C 	C 	0.5	0.42007	0.76	-0.003
Mof_C 	C 	0.5	0.45999	0.7589	0.035
Mof_C 	C 	0.5	0.65815	0.7611	-0.034
Mof_H 	H 	0.5	0.684	0.7622	0.032
Mof_C 	C 	0.5	0.57993	0.76	-0.003
Mof_C 	C 	0.5	0.54001	0.7589	0.035
Mof_C 	C 	0.2389	0.5	0.34185	-0.034
Mof_H 	H 	0.2378	0.5	0.316	0.032
Mof_C 	C 	0.24	0.5	0.42007	-0.003
Mof_C 	C 	0.2411	0.5	0.45999	0.035
Mof_C 	C 	0.2389	0.5	0.65815	-0.034
Mof_H 	H 	0.2378	0.5	0.684	0.032
Mof_C 	C 	0.24	0.5	0.57993	-0.003
Mof_C 	C 	0.2411	0.5	0.54001	0.035
Mof_C 	C 	0.7611	0.5	0.34185	-0.034
Mof_H 	H 	0.7622	0.5	0.316	0.032
Mof_C 	C 	0.76	0.5	0.42007	-0.003
Mof_C 	C 	0.7589	0.5	0.45999	0.035
Mof_C 	C 	0.7611	0.5	0.65815	-0.034
Mof_H 	H 	0.7622	0.5	0.684	0.032
Mof_C 	C 	0.76	0.5	0.57993	-0.003
Mof_C 	C 	0.7589	0.5	0.54001	0.035
Mof_C 	C 	0.34185	0.2389	0.5	-0.034
Mof_H 	H 	0.316	0.2378	0.5	0.032
Mof_C 	C 	0.42007	0.24	0.5	-0.003
Mof_C 	C 	0.45999	0.2411	0.5	0.035
Mof_C 	C 	0.65815	0.2389	0.5	-0.034
Mof_H 	H 	0.684	0.2378	0.5	0.032
Mof_C 	C 	0.57993	0.24	0.5	-0.003
Mof_C 	C 	0.54001	0.2411	0.5	0.035
Mof_C 	C 	0.34185	0.7611	0.5	-0.034
Mof_H 	H 	0.316	0.7622	0.5	0.032
Mof_C 	C 	0.42007	0.76	0.5	-0.003
Mof_C 	C 	0.45999	0.7589	0.5	0.035
Mof_C 	C 	0.65815	0.7611	0.5	-0.034
Mof_H 	H 	0.684	0.7622	0.5	0.032
Mof_C 	C 	0.57993	0.76	0.5	-0.003
Mof_C 	C 	0.54001	0.7589	0.5	0.035
Mof_C 	C 	0.84185	-2.17617e-33	0.2611	-0.034
Mof_H 	H 	0.816	2.17617e-33	0.2622	0.032
Mof_C 	C 	0.92007	0	0.26	-0.003
Mof_C 	C 	0.95999	-2.17617e-33	0.2589	0.034
Mof_C 	C 	0.15815	-2.17617e-33	0.2611	-0.034
Mof_H 	H 	0.184	2.17617e-33	0.2622	0.032
Mof_C 	C 	0.07993	0	0.26	-0.004
Mof_C 	C 	0.04001	-2.17617e-33	0.2589	0.035
Mof_C 	C 	0.84185	0	0.7389	-0.034
Mof_H 	H 	0.816	0	0.7378	0.032
Mof_C 	C 	0.92007	0	0.74	-0.003
Mof_C 	C 	0.95999	-8.7047e-33	0.7411	0.034
Mof_C 	C 	0.15815	0	0.7389	-0.034
Mof_H 	H 	0.184	0	0.7378	0.032
Mof_C 	C 	0.07993	0	0.74	-0.004
Mof_C 	C 	0.04001	-8.7047e-33	0.7411	0.035
Mof_C 	C 	-4.9512e-34	0.7389	0.15815	-0.034
Mof_H 	H 	2.86606e-33	0.7378	0.184	0.032
Mof_C 	C 	2.47586e-33	0.74	0.07993	-0.004
Mof_C 	C 	-7.4666e-33	0.7411	0.04001	0.035
Mof_C 	C 	-1.4253e-32	0.7389	0.84185	-0.034
Mof_H 	H 	-5.64519e-33	0.7378	0.816	0.032
Mof_C 	C 	-5.25499e-33	0.74	0.92007	-0.003
Mof_C 	C 	2.10088e-32	0.7411	0.95999	0.034
Mof_C 	C 	-4.9512e-34	0.2611	0.15815	-0.034
Mof_H 	H 	6.8989e-34	0.2622	0.184	0.032
Mof_C 	C 	-1.87648e-33	0.26	0.07993	-0.004
Mof_C 	C 	-9.38074e-34	0.2589	0.04001	0.035
Mof_C 	C 	-5.54827e-33	0.2611	0.84185	-0.034
Mof_H 	H 	1.17642e-32	0.2622	0.816	0.032
Mof_C 	C 	-5.25499e-33	0.26	0.92007	-0.003
Mof_C 	C 	3.59939e-33	0.2589	0.95999	0.034
Mof_C 	C 	0.7389	0.84185	-0	-0.034
Mof_H 	H 	0.7378	0.816	-0	0.032
Mof_C 	C 	0.74	0.92007	-0	-0.003
Mof_C 	C 	0.7411	0.95999	-0	0.034
Mof_C 	C 	0.7389	0.15815	-0	-0.034
Mof_H 	H 	0.7378	0.184	-0	0.032
Mof_C 	C 	0.74	0.07993	-0	-0.004
Mof_C 	C 	0.7411	0.04001	-0	0.035
Mof_C 	C 	0.2611	0.84185	-0	-0.034
Mof_H 	H 	0.2622	0.816	-0	0.032
Mof_C 	C 	0.26	0.92007	-0	-0.003
Mof_C 	C 	0.2589	0.95999	-0	0.034
Mof_C 	C 	0.2611	0.15815	-0	-0.034
Mof_H 	H 	0.2622	0.184	-0	0.032
Mof_C 	C 	0.26	0.07993	-0	-0.004
Mof_C 	C 	0.2589	0.04001	-0	0.035
_end
