# CIF file generated by openbabel 2.4.1, see http://openbabel.sf.net
data_I
_chemical_name_common 'image0'
_cell_length_a 25.3688
_cell_length_b 25.3688
_cell_length_c 25.3688
_cell_angle_alpha 90
_cell_angle_beta 90
_cell_angle_gamma 90
_space_group_name_H-M_alt 'P 1'
_space_group_name_Hall 'P 1'
loop_
    _symmetry_equiv_pos_as_xyz
    x,y,z
loop_
    _atom_site_label
    _atom_site_type_symbol
    _atom_site_fract_x
    _atom_site_fract_y
    _atom_site_fract_z
    _atom_site_occupancy
    C1      C    0.31150   0.53580   0.92310   1.000
    H1      H    0.33010   0.54440   0.89170   1.000
    C2      C    0.25740   0.54290   0.92530   1.000
    H2      H    0.23920   0.55850   0.89660   1.000
    C3      C    0.39730   0.51080   0.96340   1.000
    C4      C    0.33860   0.51620   0.96660   1.000
    C5      C    0.30910   0.49950   0.01000   1.000
    H3      H    0.32750   0.48400   0.03870   1.000
    C6      C    0.25410   0.50420   0.01390   1.000
    H4      H    0.23480   0.49280   0.04390   1.000
    C7      C    0.23020   0.52700   0.96990   1.000
    C8      C    0.17110   0.53380   0.97130   1.000
    C9      C    0.54800   0.42890   0.74060   1.000
    H5      H    0.57370   0.40620   0.75570   1.000
    C10     C    0.53950   0.42670   0.68580   1.000
    H6      H    0.56120   0.40620   0.66320   1.000
    C11     C    0.53010   0.46920   0.83290   1.000
    C12     C    0.51850   0.46520   0.77600   1.000
    C13     C    0.47880   0.49310   0.75160   1.000
    H7      H    0.45820   0.51590   0.77300   1.000
    C14     C    0.46650   0.49070   0.69890   1.000
    H8      H    0.43860   0.51130   0.68470   1.000
    C15     C    0.49680   0.45670   0.66640   1.000
    C16     C    0.48780   0.45030   0.60820   1.000
    O1      O    0.14940   0.56270   0.93200   1.000
    O2      O    0.42220   0.53680   0.93040   1.000
    O3      O    0.41750   0.48090   0.00080   1.000
    O4      O    0.14830   0.51100   0.01000   1.000
    O5      O    0.55840   0.43430   0.85160   1.000
    O6      O    0.51180   0.50970   0.85490   1.000
    O7      O    0.51670   0.42220   0.57930   1.000
    O8      O    0.44780   0.47550   0.59010   1.000
    Zn1     Zn   0.47656   0.42563   0.00148   1.000
    Zn2     Zn   0.52292   0.42609   0.50280   1.000
    C17     C    0.39150   0.48340   0.95840   1.000
    C18     C    0.33500   0.49540   0.95410   1.000
    C19     C    0.29850   0.45740   0.96770   1.000
    H9      H    0.31150   0.42380   0.97800   1.000
    C20     C    0.24500   0.46420   0.96770   1.000
    H10     H    0.22120   0.43730   0.97830   1.000
    C21     C    0.22820   0.51310   0.95100   1.000
    C22     C    0.17070   0.52140   0.94920   1.000
    H11     H    0.57150   0.40400   0.75560   1.000
    H12     H    0.55520   0.40030   0.66430   1.000
    C23     C    0.52420   0.46510   0.77440   1.000
    C24     C    0.49040   0.50220   0.75170   1.000
    H13     H    0.47270   0.52690   0.77370   1.000
    C25     C    0.48210   0.50380   0.69740   1.000
    H14     H    0.46030   0.53040   0.68260   1.000
    C26     C    0.50610   0.46620   0.66450   1.000
    C27     C    0.49130   0.47300   0.60730   1.000
    O9      O    0.41980   0.51610   0.93630   1.000
    O10     O    0.40420   0.44010   0.98360   1.000
    O11     O    0.14020   0.48920   0.97080   1.000
    O12     O    0.52120   0.44700   0.57690   1.000
    O13     O    0.45390   0.50130   0.59310   1.000
    C28     C    0.31570   0.54460   0.94040   1.000
    H15     H    0.33970   0.57260   0.93380   1.000
    C29     C    0.26210   0.55360   0.93630   1.000
    H16     H    0.24890   0.58630   0.92390   1.000
    C30     C    0.18850   0.46420   0.42310   1.000
    H17     H    0.16990   0.45560   0.39170   1.000
    C31     C    0.24260   0.45710   0.42530   1.000
    H18     H    0.26080   0.44150   0.39660   1.000
    C32     C    0.10270   0.48920   0.46340   1.000
    C33     C    0.16140   0.48380   0.46660   1.000
    C34     C    0.19090   0.50050   0.51000   1.000
    H19     H    0.17250   0.51600   0.53870   1.000
    C35     C    0.24590   0.49580   0.51390   1.000
    H20     H    0.26520   0.50720   0.54390   1.000
    C36     C    0.26980   0.47300   0.46990   1.000
    C37     C    0.32890   0.46620   0.47130   1.000
    C38     C    0.95200   0.57110   0.24060   1.000
    H21     H    0.92630   0.59380   0.25570   1.000
    C39     C    0.96050   0.57330   0.18580   1.000
    H22     H    0.93880   0.59380   0.16320   1.000
    C40     C    0.96990   0.53080   0.33290   1.000
    C41     C    0.98150   0.53480   0.27600   1.000
    C42     C    0.02120   0.50690   0.25160   1.000
    H23     H    0.04180   0.48410   0.27300   1.000
    C43     C    0.03350   0.50930   0.19890   1.000
    H24     H    0.06140   0.48870   0.18470   1.000
    C44     C    0.00320   0.54330   0.16640   1.000
    C45     C    0.01220   0.54970   0.10820   1.000
    O14     O    0.35060   0.43730   0.43200   1.000
    O15     O    0.07780   0.46320   0.43040   1.000
    O16     O    0.08250   0.51910   0.50080   1.000
    O17     O    0.35170   0.48900   0.51000   1.000
    O18     O    0.94160   0.56570   0.35160   1.000
    O19     O    0.98820   0.49030   0.35490   1.000
    O20     O    0.98330   0.57780   0.07930   1.000
    O21     O    0.05220   0.52450   0.09010   1.000
    Zn3     Zn   0.02344   0.57437   0.50148   1.000
    Zn4     Zn   0.97708   0.57391   0.00280   1.000
    C46     C    0.10850   0.51660   0.45840   1.000
    C47     C    0.16500   0.50460   0.45410   1.000
    C48     C    0.20150   0.54260   0.46770   1.000
    H25     H    0.18850   0.57620   0.47800   1.000
    C49     C    0.25500   0.53580   0.46770   1.000
    H26     H    0.27880   0.56270   0.47830   1.000
    C50     C    0.27180   0.48690   0.45100   1.000
    C51     C    0.32930   0.47860   0.44920   1.000
    H27     H    0.92850   0.59600   0.25560   1.000
    H28     H    0.94480   0.59970   0.16430   1.000
    C52     C    0.97580   0.53490   0.27440   1.000
    C53     C    0.00960   0.49780   0.25170   1.000
    H29     H    0.02730   0.47310   0.27370   1.000
    C54     C    0.01790   0.49620   0.19740   1.000
    H30     H    0.03970   0.46960   0.18260   1.000
    C55     C    0.99390   0.53380   0.16450   1.000
    C56     C    0.00870   0.52700   0.10730   1.000
    O22     O    0.08020   0.48390   0.43630   1.000
    O23     O    0.09580   0.55990   0.48360   1.000
    O24     O    0.35980   0.51080   0.47080   1.000
    O25     O    0.97880   0.55300   0.07690   1.000
    O26     O    0.04610   0.49870   0.09310   1.000
    C57     C    0.18430   0.45540   0.44040   1.000
    H31     H    0.16030   0.42740   0.43380   1.000
    C58     C    0.23790   0.44640   0.43630   1.000
    H32     H    0.25110   0.41370   0.42390   1.000
    C59     C    0.68850   0.03580   0.57690   1.000
    H33     H    0.66990   0.04440   0.60830   1.000
    C60     C    0.74260   0.04290   0.57470   1.000
    H34     H    0.76080   0.05850   0.60340   1.000
    C61     C    0.60270   0.01080   0.53660   1.000
    C62     C    0.66140   0.01620   0.53340   1.000
    C63     C    0.69090   0.99950   0.49000   1.000
    H35     H    0.67250   0.98400   0.46130   1.000
    C64     C    0.74590   0.00420   0.48610   1.000
    H36     H    0.76520   0.99280   0.45610   1.000
    C65     C    0.76980   0.02700   0.53010   1.000
    C66     C    0.82890   0.03380   0.52870   1.000
    C67     C    0.45200   0.92890   0.75940   1.000
    H37     H    0.42630   0.90620   0.74430   1.000
    C68     C    0.46050   0.92670   0.81420   1.000
    H38     H    0.43880   0.90620   0.83680   1.000
    C69     C    0.46990   0.96920   0.66710   1.000
    C70     C    0.48150   0.96520   0.72400   1.000
    C71     C    0.52120   0.99310   0.74840   1.000
    H39     H    0.54180   0.01590   0.72700   1.000
    C72     C    0.53350   0.99070   0.80110   1.000
    H40     H    0.56140   0.01130   0.81530   1.000
    C73     C    0.50320   0.95670   0.83360   1.000
    C74     C    0.51220   0.95030   0.89180   1.000
    O27     O    0.85060   0.06270   0.56800   1.000
    O28     O    0.57780   0.03680   0.56960   1.000
    O29     O    0.58250   0.98090   0.49920   1.000
    O30     O    0.85170   0.01100   0.49000   1.000
    O31     O    0.44160   0.93430   0.64840   1.000
    O32     O    0.48820   0.00970   0.64510   1.000
    O33     O    0.48330   0.92220   0.92070   1.000
    O34     O    0.55220   0.97550   0.90990   1.000
    Zn5     Zn   0.52344   0.92563   0.49852   1.000
    Zn6     Zn   0.47708   0.92609   0.99720   1.000
    C75     C    0.60850   0.98340   0.54160   1.000
    C76     C    0.66500   0.99540   0.54590   1.000
    C77     C    0.70150   0.95740   0.53230   1.000
    H41     H    0.68850   0.92380   0.52200   1.000
    C78     C    0.75500   0.96420   0.53230   1.000
    H42     H    0.77880   0.93730   0.52170   1.000
    C79     C    0.77180   0.01310   0.54900   1.000
    C80     C    0.82930   0.02140   0.55080   1.000
    H43     H    0.42850   0.90400   0.74440   1.000
    H44     H    0.44480   0.90030   0.83570   1.000
    C81     C    0.47580   0.96510   0.72560   1.000
    C82     C    0.50960   0.00220   0.74830   1.000
    H45     H    0.52730   0.02690   0.72630   1.000
    C83     C    0.51790   0.00380   0.80260   1.000
    H46     H    0.53970   0.03040   0.81740   1.000
    C84     C    0.49390   0.96620   0.83550   1.000
    C85     C    0.50870   0.97300   0.89270   1.000
    O35     O    0.58020   0.01610   0.56370   1.000
    O36     O    0.59580   0.94010   0.51640   1.000
    O37     O    0.85980   0.98920   0.52920   1.000
    O38     O    0.47880   0.94700   0.92310   1.000
    O39     O    0.54610   0.00130   0.90690   1.000
    C86     C    0.68430   0.04460   0.55960   1.000
    H47     H    0.66030   0.07260   0.56620   1.000
    C87     C    0.73790   0.05360   0.56370   1.000
    H48     H    0.75110   0.08630   0.57610   1.000
    C88     C    0.81150   0.96420   0.07690   1.000
    H49     H    0.83010   0.95560   0.10830   1.000
    C89     C    0.75740   0.95710   0.07470   1.000
    H50     H    0.73920   0.94150   0.10340   1.000
    C90     C    0.89730   0.98920   0.03660   1.000
    C91     C    0.83860   0.98380   0.03340   1.000
    C92     C    0.80910   0.00050   0.99000   1.000
    H51     H    0.82750   0.01600   0.96130   1.000
    C93     C    0.75410   0.99580   0.98610   1.000
    H52     H    0.73480   0.00720   0.95610   1.000
    C94     C    0.73020   0.97300   0.03010   1.000
    C95     C    0.67110   0.96620   0.02870   1.000
    C96     C    0.04800   0.07110   0.25940   1.000
    H53     H    0.07370   0.09380   0.24430   1.000
    C97     C    0.03950   0.07330   0.31420   1.000
    H54     H    0.06120   0.09380   0.33680   1.000
    C98     C    0.03010   0.03080   0.16710   1.000
    C99     C    0.01850   0.03480   0.22400   1.000
    C100    C    0.97880   0.00690   0.24840   1.000
    H55     H    0.95820   0.98410   0.22700   1.000
    C101    C    0.96650   0.00930   0.30110   1.000
    H56     H    0.93860   0.98870   0.31530   1.000
    C102    C    0.99680   0.04330   0.33360   1.000
    C103    C    0.98780   0.04970   0.39180   1.000
    O40     O    0.64940   0.93730   0.06800   1.000
    O41     O    0.92220   0.96320   0.06960   1.000
    O42     O    0.91750   0.01910   0.99920   1.000
    O43     O    0.64830   0.98900   0.99000   1.000
    O44     O    0.05840   0.06570   0.14840   1.000
    O45     O    0.01180   0.99030   0.14510   1.000
    O46     O    0.01670   0.07780   0.42070   1.000
    O47     O    0.94780   0.02450   0.40990   1.000
    Zn7     Zn   0.97656   0.07437   0.99852   1.000
    Zn8     Zn   0.02292   0.07391   0.49720   1.000
    C104    C    0.89150   0.01660   0.04160   1.000
    C105    C    0.83500   0.00460   0.04590   1.000
    C106    C    0.79850   0.04260   0.03230   1.000
    H57     H    0.81150   0.07620   0.02200   1.000
    C107    C    0.74500   0.03580   0.03230   1.000
    H58     H    0.72120   0.06270   0.02170   1.000
    C108    C    0.72820   0.98690   0.04900   1.000
    C109    C    0.67070   0.97860   0.05080   1.000
    H59     H    0.07150   0.09600   0.24440   1.000
    H60     H    0.05520   0.09970   0.33570   1.000
    C110    C    0.02420   0.03490   0.22560   1.000
    C111    C    0.99040   0.99780   0.24830   1.000
    H61     H    0.97270   0.97310   0.22630   1.000
    C112    C    0.98210   0.99620   0.30260   1.000
    H62     H    0.96030   0.96960   0.31740   1.000
    C113    C    0.00610   0.03380   0.33550   1.000
    C114    C    0.99130   0.02700   0.39270   1.000
    O48     O    0.91980   0.98390   0.06370   1.000
    O49     O    0.90420   0.05990   0.01640   1.000
    O50     O    0.64020   0.01080   0.02920   1.000
    O51     O    0.02120   0.05300   0.42310   1.000
    O52     O    0.95390   0.99870   0.40690   1.000
    C115    C    0.81570   0.95540   0.05960   1.000
    H63     H    0.83970   0.92740   0.06620   1.000
    C116    C    0.76210   0.94640   0.06370   1.000
    H64     H    0.74890   0.91370   0.07610   1.000
    C117    C    0.92310   0.31150   0.53580   1.000
    H65     H    0.89170   0.33010   0.54440   1.000
    C118    C    0.92530   0.25740   0.54290   1.000
    H66     H    0.89660   0.23920   0.55850   1.000
    C119    C    0.96340   0.39730   0.51080   1.000
    C120    C    0.96660   0.33860   0.51620   1.000
    C121    C    0.01000   0.30910   0.49950   1.000
    H67     H    0.03870   0.32750   0.48400   1.000
    C122    C    0.01390   0.25410   0.50420   1.000
    H68     H    0.04390   0.23480   0.49280   1.000
    C123    C    0.96990   0.23020   0.52700   1.000
    C124    C    0.97130   0.17110   0.53380   1.000
    C125    C    0.74060   0.54800   0.42890   1.000
    H69     H    0.75570   0.57370   0.40620   1.000
    C126    C    0.68580   0.53950   0.42670   1.000
    H70     H    0.66320   0.56120   0.40620   1.000
    C127    C    0.83290   0.53010   0.46920   1.000
    C128    C    0.77600   0.51850   0.46520   1.000
    C129    C    0.75160   0.47880   0.49310   1.000
    H71     H    0.77300   0.45820   0.51590   1.000
    C130    C    0.69890   0.46650   0.49070   1.000
    H72     H    0.68470   0.43860   0.51130   1.000
    C131    C    0.66640   0.49680   0.45670   1.000
    C132    C    0.60820   0.48780   0.45030   1.000
    O53     O    0.93200   0.14940   0.56270   1.000
    O54     O    0.93040   0.42220   0.53680   1.000
    O55     O    0.00080   0.41750   0.48090   1.000
    O56     O    0.01000   0.14830   0.51100   1.000
    O57     O    0.85160   0.55840   0.43430   1.000
    O58     O    0.85490   0.51180   0.50970   1.000
    O59     O    0.57930   0.51670   0.42220   1.000
    O60     O    0.59010   0.44780   0.47550   1.000
    Zn9     Zn   0.00148   0.47656   0.42563   1.000
    Zn10    Zn   0.50280   0.52292   0.42609   1.000
    C133    C    0.95840   0.39150   0.48340   1.000
    C134    C    0.95410   0.33500   0.49540   1.000
    C135    C    0.96770   0.29850   0.45740   1.000
    H73     H    0.97800   0.31150   0.42380   1.000
    C136    C    0.96770   0.24500   0.46420   1.000
    H74     H    0.97830   0.22120   0.43730   1.000
    C137    C    0.95100   0.22820   0.51310   1.000
    C138    C    0.94920   0.17070   0.52140   1.000
    H75     H    0.75560   0.57150   0.40400   1.000
    H76     H    0.66430   0.55520   0.40030   1.000
    C139    C    0.77440   0.52420   0.46510   1.000
    C140    C    0.75170   0.49040   0.50220   1.000
    H77     H    0.77370   0.47270   0.52690   1.000
    C141    C    0.69740   0.48210   0.50380   1.000
    H78     H    0.68260   0.46030   0.53040   1.000
    C142    C    0.66450   0.50610   0.46620   1.000
    C143    C    0.60730   0.49130   0.47300   1.000
    O61     O    0.93630   0.41980   0.51610   1.000
    O62     O    0.98360   0.40420   0.44010   1.000
    O63     O    0.97080   0.14020   0.48920   1.000
    O64     O    0.57690   0.52120   0.44700   1.000
    O65     O    0.59310   0.45390   0.50130   1.000
    C144    C    0.94040   0.31570   0.54460   1.000
    H79     H    0.93380   0.33970   0.57260   1.000
    C145    C    0.93630   0.26210   0.55360   1.000
    H80     H    0.92390   0.24890   0.58630   1.000
    C146    C    0.42310   0.18850   0.46420   1.000
    H81     H    0.39170   0.16990   0.45560   1.000
    C147    C    0.42530   0.24260   0.45710   1.000
    H82     H    0.39660   0.26080   0.44150   1.000
    C148    C    0.46340   0.10270   0.48920   1.000
    C149    C    0.46660   0.16140   0.48380   1.000
    C150    C    0.51000   0.19090   0.50050   1.000
    H83     H    0.53870   0.17250   0.51600   1.000
    C151    C    0.51390   0.24590   0.49580   1.000
    H84     H    0.54390   0.26520   0.50720   1.000
    C152    C    0.46990   0.26980   0.47300   1.000
    C153    C    0.47130   0.32890   0.46620   1.000
    C154    C    0.24060   0.95200   0.57110   1.000
    H85     H    0.25570   0.92630   0.59380   1.000
    C155    C    0.18580   0.96050   0.57330   1.000
    H86     H    0.16320   0.93880   0.59380   1.000
    C156    C    0.33290   0.96990   0.53080   1.000
    C157    C    0.27600   0.98150   0.53480   1.000
    C158    C    0.25160   0.02120   0.50690   1.000
    H87     H    0.27300   0.04180   0.48410   1.000
    C159    C    0.19890   0.03350   0.50930   1.000
    H88     H    0.18470   0.06140   0.48870   1.000
    C160    C    0.16640   0.00320   0.54330   1.000
    C161    C    0.10820   0.01220   0.54970   1.000
    O66     O    0.43200   0.35060   0.43730   1.000
    O67     O    0.43040   0.07780   0.46320   1.000
    O68     O    0.50080   0.08250   0.51910   1.000
    O69     O    0.51000   0.35170   0.48900   1.000
    O70     O    0.35160   0.94160   0.56570   1.000
    O71     O    0.35490   0.98820   0.49030   1.000
    O72     O    0.07930   0.98330   0.57780   1.000
    O73     O    0.09010   0.05220   0.52450   1.000
    Zn11    Zn   0.50148   0.02344   0.57437   1.000
    Zn12    Zn   0.00280   0.97708   0.57391   1.000
    C162    C    0.45840   0.10850   0.51660   1.000
    C163    C    0.45410   0.16500   0.50460   1.000
    C164    C    0.46770   0.20150   0.54260   1.000
    H89     H    0.47800   0.18850   0.57620   1.000
    C165    C    0.46770   0.25500   0.53580   1.000
    H90     H    0.47830   0.27880   0.56270   1.000
    C166    C    0.45100   0.27180   0.48690   1.000
    C167    C    0.44920   0.32930   0.47860   1.000
    H91     H    0.25560   0.92850   0.59600   1.000
    H92     H    0.16430   0.94480   0.59970   1.000
    C168    C    0.27440   0.97580   0.53490   1.000
    C169    C    0.25170   0.00960   0.49780   1.000
    H93     H    0.27370   0.02730   0.47310   1.000
    C170    C    0.19740   0.01790   0.49620   1.000
    H94     H    0.18260   0.03970   0.46960   1.000
    C171    C    0.16450   0.99390   0.53380   1.000
    C172    C    0.10730   0.00870   0.52700   1.000
    O74     O    0.43630   0.08020   0.48390   1.000
    O75     O    0.48360   0.09580   0.55990   1.000
    O76     O    0.47080   0.35980   0.51080   1.000
    O77     O    0.07690   0.97880   0.55300   1.000
    O78     O    0.09310   0.04610   0.49870   1.000
    C173    C    0.44040   0.18430   0.45540   1.000
    H95     H    0.43380   0.16030   0.42740   1.000
    C174    C    0.43630   0.23790   0.44640   1.000
    H96     H    0.42390   0.25110   0.41370   1.000
    C175    C    0.57690   0.68850   0.03580   1.000
    H97     H    0.60830   0.66990   0.04440   1.000
    C176    C    0.57470   0.74260   0.04290   1.000
    H98     H    0.60340   0.76080   0.05850   1.000
    C177    C    0.53660   0.60270   0.01080   1.000
    C178    C    0.53340   0.66140   0.01620   1.000
    C179    C    0.49000   0.69090   0.99950   1.000
    H99     H    0.46130   0.67250   0.98400   1.000
    C180    C    0.48610   0.74590   0.00420   1.000
    H100    H    0.45610   0.76520   0.99280   1.000
    C181    C    0.53010   0.76980   0.02700   1.000
    C182    C    0.52870   0.82890   0.03380   1.000
    C183    C    0.75940   0.45200   0.92890   1.000
    H101    H    0.74430   0.42630   0.90620   1.000
    C184    C    0.81420   0.46050   0.92670   1.000
    H102    H    0.83680   0.43880   0.90620   1.000
    C185    C    0.66710   0.46990   0.96920   1.000
    C186    C    0.72400   0.48150   0.96520   1.000
    C187    C    0.74840   0.52120   0.99310   1.000
    H103    H    0.72700   0.54180   0.01590   1.000
    C188    C    0.80110   0.53350   0.99070   1.000
    H104    H    0.81530   0.56140   0.01130   1.000
    C189    C    0.83360   0.50320   0.95670   1.000
    C190    C    0.89180   0.51220   0.95030   1.000
    O79     O    0.56800   0.85060   0.06270   1.000
    O80     O    0.56960   0.57780   0.03680   1.000
    O81     O    0.49920   0.58250   0.98090   1.000
    O82     O    0.49000   0.85170   0.01100   1.000
    O83     O    0.64840   0.44160   0.93430   1.000
    O84     O    0.64510   0.48820   0.00970   1.000
    O85     O    0.92070   0.48330   0.92220   1.000
    O86     O    0.90990   0.55220   0.97550   1.000
    Zn13    Zn   0.49852   0.52344   0.92563   1.000
    Zn14    Zn   0.99720   0.47708   0.92609   1.000
    C191    C    0.54160   0.60850   0.98340   1.000
    C192    C    0.54590   0.66500   0.99540   1.000
    C193    C    0.53230   0.70150   0.95740   1.000
    H105    H    0.52200   0.68850   0.92380   1.000
    C194    C    0.53230   0.75500   0.96420   1.000
    H106    H    0.52170   0.77880   0.93730   1.000
    C195    C    0.54900   0.77180   0.01310   1.000
    C196    C    0.55080   0.82930   0.02140   1.000
    H107    H    0.74440   0.42850   0.90400   1.000
    H108    H    0.83570   0.44480   0.90030   1.000
    C197    C    0.72560   0.47580   0.96510   1.000
    C198    C    0.74830   0.50960   0.00220   1.000
    H109    H    0.72630   0.52730   0.02690   1.000
    C199    C    0.80260   0.51790   0.00380   1.000
    H110    H    0.81740   0.53970   0.03040   1.000
    C200    C    0.83550   0.49390   0.96620   1.000
    C201    C    0.89270   0.50870   0.97300   1.000
    O87     O    0.56370   0.58020   0.01610   1.000
    O88     O    0.51640   0.59580   0.94010   1.000
    O89     O    0.52920   0.85980   0.98920   1.000
    O90     O    0.92310   0.47880   0.94700   1.000
    O91     O    0.90690   0.54610   0.00130   1.000
    C202    C    0.55960   0.68430   0.04460   1.000
    H111    H    0.56620   0.66030   0.07260   1.000
    C203    C    0.56370   0.73790   0.05360   1.000
    H112    H    0.57610   0.75110   0.08630   1.000
    C204    C    0.07690   0.81150   0.96420   1.000
    H113    H    0.10830   0.83010   0.95560   1.000
    C205    C    0.07470   0.75740   0.95710   1.000
    H114    H    0.10340   0.73920   0.94150   1.000
    C206    C    0.03660   0.89730   0.98920   1.000
    C207    C    0.03340   0.83860   0.98380   1.000
    C208    C    0.99000   0.80910   0.00050   1.000
    H115    H    0.96130   0.82750   0.01600   1.000
    C209    C    0.98610   0.75410   0.99580   1.000
    H116    H    0.95610   0.73480   0.00720   1.000
    C210    C    0.03010   0.73020   0.97300   1.000
    C211    C    0.02870   0.67110   0.96620   1.000
    C212    C    0.25940   0.04800   0.07110   1.000
    H117    H    0.24430   0.07370   0.09380   1.000
    C213    C    0.31420   0.03950   0.07330   1.000
    H118    H    0.33680   0.06120   0.09380   1.000
    C214    C    0.16710   0.03010   0.03080   1.000
    C215    C    0.22400   0.01850   0.03480   1.000
    C216    C    0.24840   0.97880   0.00690   1.000
    H119    H    0.22700   0.95820   0.98410   1.000
    C217    C    0.30110   0.96650   0.00930   1.000
    H120    H    0.31530   0.93860   0.98870   1.000
    C218    C    0.33360   0.99680   0.04330   1.000
    C219    C    0.39180   0.98780   0.04970   1.000
    O92     O    0.06800   0.64940   0.93730   1.000
    O93     O    0.06960   0.92220   0.96320   1.000
    O94     O    0.99920   0.91750   0.01910   1.000
    O95     O    0.99000   0.64830   0.98900   1.000
    O96     O    0.14840   0.05840   0.06570   1.000
    O97     O    0.14510   0.01180   0.99030   1.000
    O98     O    0.42070   0.01670   0.07780   1.000
    O99     O    0.40990   0.94780   0.02450   1.000
    Zn15    Zn   0.99852   0.97656   0.07437   1.000
    Zn16    Zn   0.49720   0.02292   0.07391   1.000
    C220    C    0.04160   0.89150   0.01660   1.000
    C221    C    0.04590   0.83500   0.00460   1.000
    C222    C    0.03230   0.79850   0.04260   1.000
    H121    H    0.02200   0.81150   0.07620   1.000
    C223    C    0.03230   0.74500   0.03580   1.000
    H122    H    0.02170   0.72120   0.06270   1.000
    C224    C    0.04900   0.72820   0.98690   1.000
    C225    C    0.05080   0.67070   0.97860   1.000
    H123    H    0.24440   0.07150   0.09600   1.000
    H124    H    0.33570   0.05520   0.09970   1.000
    C226    C    0.22560   0.02420   0.03490   1.000
    C227    C    0.24830   0.99040   0.99780   1.000
    H125    H    0.22630   0.97270   0.97310   1.000
    C228    C    0.30260   0.98210   0.99620   1.000
    H126    H    0.31740   0.96030   0.96960   1.000
    C229    C    0.33550   0.00610   0.03380   1.000
    C230    C    0.39270   0.99130   0.02700   1.000
    O100    O    0.06370   0.91980   0.98390   1.000
    O101    O    0.01640   0.90420   0.05990   1.000
    O102    O    0.02920   0.64020   0.01080   1.000
    O103    O    0.42310   0.02120   0.05300   1.000
    O104    O    0.40690   0.95390   0.99870   1.000
    C231    C    0.05960   0.81570   0.95540   1.000
    H127    H    0.06620   0.83970   0.92740   1.000
    C232    C    0.06370   0.76210   0.94640   1.000
    H128    H    0.07610   0.74890   0.91370   1.000
    C233    C    0.53580   0.92310   0.31150   1.000
    H129    H    0.54440   0.89170   0.33010   1.000
    C234    C    0.54290   0.92530   0.25740   1.000
    H130    H    0.55850   0.89660   0.23920   1.000
    C235    C    0.51080   0.96340   0.39730   1.000
    C236    C    0.51620   0.96660   0.33860   1.000
    C237    C    0.49950   0.01000   0.30910   1.000
    H131    H    0.48400   0.03870   0.32750   1.000
    C238    C    0.50420   0.01390   0.25410   1.000
    H132    H    0.49280   0.04390   0.23480   1.000
    C239    C    0.52700   0.96990   0.23020   1.000
    C240    C    0.53380   0.97130   0.17110   1.000
    C241    C    0.42890   0.74060   0.54800   1.000
    H133    H    0.40620   0.75570   0.57370   1.000
    C242    C    0.42670   0.68580   0.53950   1.000
    H134    H    0.40620   0.66320   0.56120   1.000
    C243    C    0.46920   0.83290   0.53010   1.000
    C244    C    0.46520   0.77600   0.51850   1.000
    C245    C    0.49310   0.75160   0.47880   1.000
    H135    H    0.51590   0.77300   0.45820   1.000
    C246    C    0.49070   0.69890   0.46650   1.000
    H136    H    0.51130   0.68470   0.43860   1.000
    C247    C    0.45670   0.66640   0.49680   1.000
    C248    C    0.45030   0.60820   0.48780   1.000
    O105    O    0.56270   0.93200   0.14940   1.000
    O106    O    0.53680   0.93040   0.42220   1.000
    O107    O    0.48090   0.00080   0.41750   1.000
    O108    O    0.51100   0.01000   0.14830   1.000
    O109    O    0.43430   0.85160   0.55840   1.000
    O110    O    0.50970   0.85490   0.51180   1.000
    O111    O    0.42220   0.57930   0.51670   1.000
    O112    O    0.47550   0.59010   0.44780   1.000
    Zn17    Zn   0.42563   0.00148   0.47656   1.000
    Zn18    Zn   0.42609   0.50280   0.52292   1.000
    C249    C    0.48340   0.95840   0.39150   1.000
    C250    C    0.49540   0.95410   0.33500   1.000
    C251    C    0.45740   0.96770   0.29850   1.000
    H137    H    0.42380   0.97800   0.31150   1.000
    C252    C    0.46420   0.96770   0.24500   1.000
    H138    H    0.43730   0.97830   0.22120   1.000
    C253    C    0.51310   0.95100   0.22820   1.000
    C254    C    0.52140   0.94920   0.17070   1.000
    H139    H    0.40400   0.75560   0.57150   1.000
    H140    H    0.40030   0.66430   0.55520   1.000
    C255    C    0.46510   0.77440   0.52420   1.000
    C256    C    0.50220   0.75170   0.49040   1.000
    H141    H    0.52690   0.77370   0.47270   1.000
    C257    C    0.50380   0.69740   0.48210   1.000
    H142    H    0.53040   0.68260   0.46030   1.000
    C258    C    0.46620   0.66450   0.50610   1.000
    C259    C    0.47300   0.60730   0.49130   1.000
    O113    O    0.51610   0.93630   0.41980   1.000
    O114    O    0.44010   0.98360   0.40420   1.000
    O115    O    0.48920   0.97080   0.14020   1.000
    O116    O    0.44700   0.57690   0.52120   1.000
    O117    O    0.50130   0.59310   0.45390   1.000
    C260    C    0.54460   0.94040   0.31570   1.000
    H143    H    0.57260   0.93380   0.33970   1.000
    C261    C    0.55360   0.93630   0.26210   1.000
    H144    H    0.58630   0.92390   0.24890   1.000
    C262    C    0.46420   0.42310   0.18850   1.000
    H145    H    0.45560   0.39170   0.16990   1.000
    C263    C    0.45710   0.42530   0.24260   1.000
    H146    H    0.44150   0.39660   0.26080   1.000
    C264    C    0.48920   0.46340   0.10270   1.000
    C265    C    0.48380   0.46660   0.16140   1.000
    C266    C    0.50050   0.51000   0.19090   1.000
    H147    H    0.51600   0.53870   0.17250   1.000
    C267    C    0.49580   0.51390   0.24590   1.000
    H148    H    0.50720   0.54390   0.26520   1.000
    C268    C    0.47300   0.46990   0.26980   1.000
    C269    C    0.46620   0.47130   0.32890   1.000
    C270    C    0.57110   0.24060   0.95200   1.000
    H149    H    0.59380   0.25570   0.92630   1.000
    C271    C    0.57330   0.18580   0.96050   1.000
    H150    H    0.59380   0.16320   0.93880   1.000
    C272    C    0.53080   0.33290   0.96990   1.000
    C273    C    0.53480   0.27600   0.98150   1.000
    C274    C    0.50690   0.25160   0.02120   1.000
    H151    H    0.48410   0.27300   0.04180   1.000
    C275    C    0.50930   0.19890   0.03350   1.000
    H152    H    0.48870   0.18470   0.06140   1.000
    C276    C    0.54330   0.16640   0.00320   1.000
    C277    C    0.54970   0.10820   0.01220   1.000
    O118    O    0.43730   0.43200   0.35060   1.000
    O119    O    0.46320   0.43040   0.07780   1.000
    O120    O    0.51910   0.50080   0.08250   1.000
    O121    O    0.48900   0.51000   0.35170   1.000
    O122    O    0.56570   0.35160   0.94160   1.000
    O123    O    0.49030   0.35490   0.98820   1.000
    O124    O    0.57780   0.07930   0.98330   1.000
    O125    O    0.52450   0.09010   0.05220   1.000
    Zn19    Zn   0.57437   0.50148   0.02344   1.000
    Zn20    Zn   0.57391   0.00280   0.97708   1.000
    C278    C    0.51660   0.45840   0.10850   1.000
    C279    C    0.50460   0.45410   0.16500   1.000
    C280    C    0.54260   0.46770   0.20150   1.000
    H153    H    0.57620   0.47800   0.18850   1.000
    C281    C    0.53580   0.46770   0.25500   1.000
    H154    H    0.56270   0.47830   0.27880   1.000
    C282    C    0.48690   0.45100   0.27180   1.000
    C283    C    0.47860   0.44920   0.32930   1.000
    H155    H    0.59600   0.25560   0.92850   1.000
    H156    H    0.59970   0.16430   0.94480   1.000
    C284    C    0.53490   0.27440   0.97580   1.000
    C285    C    0.49780   0.25170   0.00960   1.000
    H157    H    0.47310   0.27370   0.02730   1.000
    C286    C    0.49620   0.19740   0.01790   1.000
    H158    H    0.46960   0.18260   0.03970   1.000
    C287    C    0.53380   0.16450   0.99390   1.000
    C288    C    0.52700   0.10730   0.00870   1.000
    O126    O    0.48390   0.43630   0.08020   1.000
    O127    O    0.55990   0.48360   0.09580   1.000
    O128    O    0.51080   0.47080   0.35980   1.000
    O129    O    0.55300   0.07690   0.97880   1.000
    O130    O    0.49870   0.09310   0.04610   1.000
    C289    C    0.45540   0.44040   0.18430   1.000
    H159    H    0.42740   0.43380   0.16030   1.000
    C290    C    0.44640   0.43630   0.23790   1.000
    H160    H    0.41370   0.42390   0.25110   1.000
    C291    C    0.03580   0.57690   0.68850   1.000
    H161    H    0.04440   0.60830   0.66990   1.000
    C292    C    0.04290   0.57470   0.74260   1.000
    H162    H    0.05850   0.60340   0.76080   1.000
    C293    C    0.01080   0.53660   0.60270   1.000
    C294    C    0.01620   0.53340   0.66140   1.000
    C295    C    0.99950   0.49000   0.69090   1.000
    H163    H    0.98400   0.46130   0.67250   1.000
    C296    C    0.00420   0.48610   0.74590   1.000
    H164    H    0.99280   0.45610   0.76520   1.000
    C297    C    0.02700   0.53010   0.76980   1.000
    C298    C    0.03380   0.52870   0.82890   1.000
    C299    C    0.92890   0.75940   0.45200   1.000
    H165    H    0.90620   0.74430   0.42630   1.000
    C300    C    0.92670   0.81420   0.46050   1.000
    H166    H    0.90620   0.83680   0.43880   1.000
    C301    C    0.96920   0.66710   0.46990   1.000
    C302    C    0.96520   0.72400   0.48150   1.000
    C303    C    0.99310   0.74840   0.52120   1.000
    H167    H    0.01590   0.72700   0.54180   1.000
    C304    C    0.99070   0.80110   0.53350   1.000
    H168    H    0.01130   0.81530   0.56140   1.000
    C305    C    0.95670   0.83360   0.50320   1.000
    C306    C    0.95030   0.89180   0.51220   1.000
    O131    O    0.06270   0.56800   0.85060   1.000
    O132    O    0.03680   0.56960   0.57780   1.000
    O133    O    0.98090   0.49920   0.58250   1.000
    O134    O    0.01100   0.49000   0.85170   1.000
    O135    O    0.93430   0.64840   0.44160   1.000
    O136    O    0.00970   0.64510   0.48820   1.000
    O137    O    0.92220   0.92070   0.48330   1.000
    O138    O    0.97550   0.90990   0.55220   1.000
    Zn21    Zn   0.92563   0.49852   0.52344   1.000
    Zn22    Zn   0.92609   0.99720   0.47708   1.000
    C307    C    0.98340   0.54160   0.60850   1.000
    C308    C    0.99540   0.54590   0.66500   1.000
    C309    C    0.95740   0.53230   0.70150   1.000
    H169    H    0.92380   0.52200   0.68850   1.000
    C310    C    0.96420   0.53230   0.75500   1.000
    H170    H    0.93730   0.52170   0.77880   1.000
    C311    C    0.01310   0.54900   0.77180   1.000
    C312    C    0.02140   0.55080   0.82930   1.000
    H171    H    0.90400   0.74440   0.42850   1.000
    H172    H    0.90030   0.83570   0.44480   1.000
    C313    C    0.96510   0.72560   0.47580   1.000
    C314    C    0.00220   0.74830   0.50960   1.000
    H173    H    0.02690   0.72630   0.52730   1.000
    C315    C    0.00380   0.80260   0.51790   1.000
    H174    H    0.03040   0.81740   0.53970   1.000
    C316    C    0.96620   0.83550   0.49390   1.000
    C317    C    0.97300   0.89270   0.50870   1.000
    O139    O    0.01610   0.56370   0.58020   1.000
    O140    O    0.94010   0.51640   0.59580   1.000
    O141    O    0.98920   0.52920   0.85980   1.000
    O142    O    0.94700   0.92310   0.47880   1.000
    O143    O    0.00130   0.90690   0.54610   1.000
    C318    C    0.04460   0.55960   0.68430   1.000
    H175    H    0.07260   0.56620   0.66030   1.000
    C319    C    0.05360   0.56370   0.73790   1.000
    H176    H    0.08630   0.57610   0.75110   1.000
    C320    C    0.96420   0.07690   0.81150   1.000
    H177    H    0.95560   0.10830   0.83010   1.000
    C321    C    0.95710   0.07470   0.75740   1.000
    H178    H    0.94150   0.10340   0.73920   1.000
    C322    C    0.98920   0.03660   0.89730   1.000
    C323    C    0.98380   0.03340   0.83860   1.000
    C324    C    0.00050   0.99000   0.80910   1.000
    H179    H    0.01600   0.96130   0.82750   1.000
    C325    C    0.99580   0.98610   0.75410   1.000
    H180    H    0.00720   0.95610   0.73480   1.000
    C326    C    0.97300   0.03010   0.73020   1.000
    C327    C    0.96620   0.02870   0.67110   1.000
    C328    C    0.07110   0.25940   0.04800   1.000
    H181    H    0.09380   0.24430   0.07370   1.000
    C329    C    0.07330   0.31420   0.03950   1.000
    H182    H    0.09380   0.33680   0.06120   1.000
    C330    C    0.03080   0.16710   0.03010   1.000
    C331    C    0.03480   0.22400   0.01850   1.000
    C332    C    0.00690   0.24840   0.97880   1.000
    H183    H    0.98410   0.22700   0.95820   1.000
    C333    C    0.00930   0.30110   0.96650   1.000
    H184    H    0.98870   0.31530   0.93860   1.000
    C334    C    0.04330   0.33360   0.99680   1.000
    C335    C    0.04970   0.39180   0.98780   1.000
    O144    O    0.93730   0.06800   0.64940   1.000
    O145    O    0.96320   0.06960   0.92220   1.000
    O146    O    0.01910   0.99920   0.91750   1.000
    O147    O    0.98900   0.99000   0.64830   1.000
    O148    O    0.06570   0.14840   0.05840   1.000
    O149    O    0.99030   0.14510   0.01180   1.000
    O150    O    0.07780   0.42070   0.01670   1.000
    O151    O    0.02450   0.40990   0.94780   1.000
    Zn23    Zn   0.07437   0.99852   0.97656   1.000
    Zn24    Zn   0.07391   0.49720   0.02292   1.000
    C336    C    0.01660   0.04160   0.89150   1.000
    C337    C    0.00460   0.04590   0.83500   1.000
    C338    C    0.04260   0.03230   0.79850   1.000
    H185    H    0.07620   0.02200   0.81150   1.000
    C339    C    0.03580   0.03230   0.74500   1.000
    H186    H    0.06270   0.02170   0.72120   1.000
    C340    C    0.98690   0.04900   0.72820   1.000
    C341    C    0.97860   0.05080   0.67070   1.000
    H187    H    0.09600   0.24440   0.07150   1.000
    H188    H    0.09970   0.33570   0.05520   1.000
    C342    C    0.03490   0.22560   0.02420   1.000
    C343    C    0.99780   0.24830   0.99040   1.000
    H189    H    0.97310   0.22630   0.97270   1.000
    C344    C    0.99620   0.30260   0.98210   1.000
    H190    H    0.96960   0.31740   0.96030   1.000
    C345    C    0.03380   0.33550   0.00610   1.000
    C346    C    0.02700   0.39270   0.99130   1.000
    O152    O    0.98390   0.06370   0.91980   1.000
    O153    O    0.05990   0.01640   0.90420   1.000
    O154    O    0.01080   0.02920   0.64020   1.000
    O155    O    0.05300   0.42310   0.02120   1.000
    O156    O    0.99870   0.40690   0.95390   1.000
    C347    C    0.95540   0.05960   0.81570   1.000
    H191    H    0.92740   0.06620   0.83970   1.000
    C348    C    0.94640   0.06370   0.76210   1.000
    H192    H    0.91370   0.07610   0.74890   1.000
    O157    O    0.53110   0.46890   0.96890   1.000
    Zn25    Zn   0.57460   0.42540   0.92540   1.000
    O158    O    0.96890   0.53110   0.46890   1.000
    Zn26    Zn   0.92540   0.57460   0.42540   1.000
    O159    O    0.46890   0.96890   0.53110   1.000
    Zn27    Zn   0.42540   0.92540   0.57460   1.000
    O160    O    0.03110   0.03110   0.03110   1.000
    Zn28    Zn   0.07460   0.07460   0.07460   1.000
    O161    O    0.46930   0.46930   0.46930   1.000
    O162    O    0.03070   0.53070   0.96930   1.000
    O163    O    0.53070   0.96930   0.03070   1.000
    O164    O    0.96930   0.03070   0.53070   1.000
    Zn29    Zn   0.07443   0.57443   0.92557   1.000
    Zn30    Zn   0.42557   0.42557   0.42557   1.000
    Zn31    Zn   0.92557   0.07443   0.57443   1.000
    Zn32    Zn   0.57443   0.92557   0.07443   1.000
