data_functionalizedCrystal
_audit_creation_method	'EQeq! by Chris Wilmer'
_symmetry_space_group_name_H-M	'P1'
_symmetry_Int_Tables_number	1
_symmetry_cell_setting	triclinic
loop_
_symmetry_equiv_pos_as_xyz
  x,y,z
_cell_length_a	10.2304
_cell_length_b	10.2304
_cell_length_c	10.2304
_cell_angle_alpha	90
_cell_angle_beta	90
_cell_angle_gamma	90
loop_
_atom_site_label
_atom_site_type_symbol
_atom_site_fract_x
_atom_site_fract_y
_atom_site_fract_z
_atom_site_charge
Mof_C 	C 	0.364	0.763	0.98	-0.151
Mof_C 	C 	0.3305	0.647	0.0604	-0.063
Mof_C 	C 	0.402	0.6702	0.1097	0.147
Mof_C 	C 	0.39	0.768	0.003	-0.215
Mof_N 	N 	0.4649	0.7715	0.0671	-0.025
Mof_N 	N 	0.375	0.774	0.9743	0.401
Mof_N 	N 	0.2921	0.677	0.9908	-0.07
Mof_O 	O 	0.281	0.772	0.89	-0.1
Mof_O 	O 	0.452	0.849	0.993	-0.074
Mof_O 	O 	0.299	0.777	0.923	-0.065
Mof_O 	O 	0.507	0.79	0.98	-0.114
Mof_C 	C 	0.136	0.237	0.48	-0.147
Mof_C 	C 	0.1695	0.353	0.5604	-0.064
Mof_C 	C 	0.098	0.3298	0.6097	0.144
Mof_C 	C 	0.11	0.232	0.503	-0.226
Mof_N 	N 	0.0351	0.2285	0.5671	-0.02
Mof_N 	N 	0.125	0.226	0.4743	0.405
Mof_N 	N 	0.2079	0.323	0.4908	-0.072
Mof_O 	O 	0.219	0.228	0.39	-0.103
Mof_O 	O 	0.048	0.151	0.493	-0.075
Mof_O 	O 	0.201	0.223	0.423	-0.064
Mof_O 	O 	0.993	0.21	0.48	-0.118
Mof_C 	C 	0.636	0.263	0.52	-0.147
Mof_C 	C 	0.6695	0.147	0.4396	-0.065
Mof_C 	C 	0.598	0.1702	0.3903	0.15
Mof_C 	C 	0.61	0.268	0.497	-0.225
Mof_N 	N 	0.5351	0.2715	0.4329	-0.021
Mof_N 	N 	0.625	0.274	0.5257	0.404
Mof_N 	N 	0.7079	0.177	0.5092	-0.071
Mof_O 	O 	0.719	0.272	0.61	-0.103
Mof_O 	O 	0.548	0.349	0.507	-0.075
Mof_O 	O 	0.701	0.277	0.577	-0.064
Mof_O 	O 	0.493	0.29	0.52	-0.118
Mof_C 	C 	0.864	0.737	0.02	-0.138
Mof_C 	C 	0.8305	0.853	0.9396	-0.069
Mof_C 	C 	0.902	0.8298	0.8903	0.155
Mof_C 	C 	0.89	0.732	0.997	-0.245
Mof_N 	N 	0.9649	0.7285	0.9329	-0.009
Mof_N 	N 	0.875	0.726	0.0257	0.411
Mof_N 	N 	0.7921	0.823	0.0092	-0.076
Mof_O 	O 	0.781	0.728	0.11	-0.107
Mof_O 	O 	0.952	0.651	0.007	-0.076
Mof_O 	O 	0.799	0.723	0.077	-0.062
Mof_O 	O 	0.007	0.71	0.02	-0.121
Mof_C 	C 	0.98	0.364	0.763	-0.152
Mof_C 	C 	0.0604	0.3305	0.647	-0.064
Mof_C 	C 	0.1097	0.402	0.6702	0.147
Mof_C 	C 	0.003	0.39	0.768	-0.215
Mof_N 	N 	0.0671	0.4649	0.7715	-0.025
Mof_N 	N 	0.9743	0.375	0.774	0.401
Mof_N 	N 	0.9908	0.2921	0.677	-0.07
Mof_O 	O 	0.89	0.281	0.772	-0.1
Mof_O 	O 	0.993	0.452	0.849	-0.074
Mof_O 	O 	0.923	0.299	0.777	-0.065
Mof_O 	O 	0.98	0.507	0.79	-0.114
Mof_C 	C 	0.48	0.136	0.237	-0.147
Mof_C 	C 	0.5604	0.1695	0.353	-0.064
Mof_C 	C 	0.6097	0.098	0.3298	0.144
Mof_C 	C 	0.503	0.11	0.232	-0.226
Mof_N 	N 	0.5671	0.0351	0.2285	-0.02
Mof_N 	N 	0.4743	0.125	0.226	0.405
Mof_N 	N 	0.4908	0.2079	0.323	-0.072
Mof_O 	O 	0.39	0.219	0.228	-0.103
Mof_O 	O 	0.493	0.048	0.151	-0.075
Mof_O 	O 	0.423	0.201	0.223	-0.064
Mof_O 	O 	0.48	0.993	0.21	-0.118
Mof_C 	C 	0.52	0.636	0.263	-0.147
Mof_C 	C 	0.4396	0.6695	0.147	-0.065
Mof_C 	C 	0.3903	0.598	0.1702	0.15
Mof_C 	C 	0.497	0.61	0.268	-0.225
Mof_N 	N 	0.4329	0.5351	0.2715	-0.021
Mof_N 	N 	0.5257	0.625	0.274	0.404
Mof_N 	N 	0.5092	0.7079	0.177	-0.071
Mof_O 	O 	0.61	0.719	0.272	-0.103
Mof_O 	O 	0.507	0.548	0.349	-0.075
Mof_O 	O 	0.577	0.701	0.277	-0.064
Mof_O 	O 	0.52	0.493	0.29	-0.118
Mof_C 	C 	0.02	0.864	0.737	-0.138
Mof_C 	C 	0.9396	0.8305	0.853	-0.069
Mof_C 	C 	0.8903	0.902	0.8298	0.155
Mof_C 	C 	0.997	0.89	0.732	-0.245
Mof_N 	N 	0.9329	0.9649	0.7285	-0.009
Mof_N 	N 	0.0257	0.875	0.726	0.411
Mof_N 	N 	0.0092	0.7921	0.823	-0.076
Mof_O 	O 	0.11	0.781	0.728	-0.107
Mof_O 	O 	0.007	0.952	0.651	-0.076
Mof_O 	O 	0.077	0.799	0.723	-0.062
Mof_O 	O 	0.02	0.007	0.71	-0.121
Mof_C 	C 	0.763	0.98	0.364	-0.152
Mof_C 	C 	0.647	0.0604	0.3305	-0.064
Mof_C 	C 	0.6702	0.1097	0.402	0.147
Mof_C 	C 	0.768	0.003	0.39	-0.215
Mof_N 	N 	0.7715	0.0671	0.4649	-0.025
Mof_N 	N 	0.774	0.9743	0.375	0.401
Mof_N 	N 	0.677	0.9908	0.2921	-0.07
Mof_O 	O 	0.772	0.89	0.281	-0.1
Mof_O 	O 	0.849	0.993	0.452	-0.074
Mof_O 	O 	0.777	0.923	0.299	-0.065
Mof_O 	O 	0.79	0.98	0.507	-0.114
Mof_C 	C 	0.237	0.48	0.136	-0.147
Mof_C 	C 	0.353	0.5604	0.1695	-0.064
Mof_C 	C 	0.3298	0.6097	0.098	0.144
Mof_C 	C 	0.232	0.503	0.11	-0.226
Mof_N 	N 	0.2285	0.5671	0.0351	-0.02
Mof_N 	N 	0.226	0.4743	0.125	0.405
Mof_N 	N 	0.323	0.4908	0.2079	-0.072
Mof_O 	O 	0.228	0.39	0.219	-0.103
Mof_O 	O 	0.151	0.493	0.048	-0.075
Mof_O 	O 	0.223	0.423	0.201	-0.064
Mof_O 	O 	0.21	0.48	0.993	-0.118
Mof_C 	C 	0.263	0.52	0.636	-0.147
Mof_C 	C 	0.147	0.4396	0.6695	-0.065
Mof_C 	C 	0.1702	0.3903	0.598	0.15
Mof_C 	C 	0.268	0.497	0.61	-0.225
Mof_N 	N 	0.2715	0.4329	0.5351	-0.021
Mof_N 	N 	0.274	0.5257	0.625	0.404
Mof_N 	N 	0.177	0.5092	0.7079	-0.071
Mof_O 	O 	0.272	0.61	0.719	-0.103
Mof_O 	O 	0.349	0.507	0.548	-0.075
Mof_O 	O 	0.277	0.577	0.701	-0.064
Mof_O 	O 	0.29	0.52	0.493	-0.118
Mof_C 	C 	0.737	0.02	0.864	-0.138
Mof_C 	C 	0.853	0.9396	0.8305	-0.069
Mof_C 	C 	0.8298	0.8903	0.902	0.155
Mof_C 	C 	0.732	0.997	0.89	-0.245
Mof_N 	N 	0.7285	0.9329	0.9649	-0.009
Mof_N 	N 	0.726	0.0257	0.875	0.411
Mof_N 	N 	0.823	0.0092	0.7921	-0.076
Mof_O 	O 	0.728	0.11	0.781	-0.107
Mof_O 	O 	0.651	0.007	0.952	-0.076
Mof_O 	O 	0.723	0.077	0.799	-0.062
Mof_O 	O 	0.71	0.02	0.007	-0.121
Mof_Mn	Mn	0.62599	0.87401	0.12599	1.006
Mof_Mn	Mn	0.87401	0.12599	0.62599	1.006
Mof_Mn	Mn	0.37401	0.37401	0.37401	1.009
Mof_Mn	Mn	0.12599	0.62599	0.87401	1.006
_end
