# CIF file generated by openbabel 2.4.1, see http://openbabel.sf.net
data_I
_chemical_name_common 'image0'
_cell_length_a 14.892
_cell_length_b 14.892
_cell_length_c 19.1557
_cell_angle_alpha 90
_cell_angle_beta 90
_cell_angle_gamma 90
_space_group_name_H-M_alt 'P 1'
_space_group_name_Hall 'P 1'
loop_
    _symmetry_equiv_pos_as_xyz
    x,y,z
loop_
    _atom_site_label
    _atom_site_type_symbol
    _atom_site_fract_x
    _atom_site_fract_y
    _atom_site_fract_z
    _atom_site_occupancy
    O1      O    0.13298   0.18302   0.31971   1.000
    O2      O    0.11980   0.21753   0.20582   1.000
    C1      C    0.09540   0.17740   0.26092   1.000
    C2      C    0.01647   0.11520   0.25550   1.000
    C3      C    0.97810   0.07890   0.31551   1.000
    H1      H    0.99740   0.09860   0.36020   1.000
    C4      C    0.98610   0.08820   0.19005   1.000
    H2      H    0.00990   0.11530   0.14910   1.000
    C5      C    0.20030   0.17230   0.47130   1.000
    H3      H    0.22920   0.11640   0.45470   1.000
    H4      H    0.13810   0.17380   0.45310   1.000
    C6      C    0.16400   0.23200   0.47340   1.000
    H5      H    0.14460   0.17130   0.45850   1.000
    H6      H    0.12040   0.27580   0.45450   1.000
    C7      C    0.19800   0.17310   0.55090   1.000
    H7      H    0.22440   0.11640   0.56880   1.000
    H8      H    0.13550   0.17700   0.56720   1.000
    C8      C    0.26300   0.16260   0.55180   1.000
    H9      H    0.31990   0.13750   0.57080   1.000
    H10     H    0.21330   0.12330   0.56670   1.000
    O3      O    0.36702   0.31698   0.31971   1.000
    O4      O    0.38020   0.28247   0.20582   1.000
    C9      C    0.40460   0.32260   0.26092   1.000
    C10     C    0.48353   0.38480   0.25550   1.000
    C11     C    0.52190   0.42110   0.31551   1.000
    H11     H    0.50260   0.40140   0.36020   1.000
    C12     C    0.51390   0.41180   0.19005   1.000
    H12     H    0.49010   0.38470   0.14910   1.000
    C13     C    0.29970   0.32770   0.47130   1.000
    H13     H    0.27080   0.38360   0.45470   1.000
    H14     H    0.36190   0.32620   0.45310   1.000
    C14     C    0.33600   0.26800   0.47340   1.000
    H15     H    0.35540   0.32870   0.45850   1.000
    H16     H    0.37960   0.22420   0.45450   1.000
    C15     C    0.30200   0.32690   0.55090   1.000
    H17     H    0.27560   0.38360   0.56880   1.000
    H18     H    0.36450   0.32300   0.56720   1.000
    C16     C    0.23700   0.33740   0.55180   1.000
    H19     H    0.18010   0.36250   0.57080   1.000
    H20     H    0.28670   0.37670   0.56670   1.000
    O5      O    0.31698   0.13298   0.31971   1.000
    O6      O    0.28247   0.11980   0.20582   1.000
    C17     C    0.32260   0.09540   0.26092   1.000
    C18     C    0.38480   0.01647   0.25550   1.000
    C19     C    0.42110   0.97810   0.31551   1.000
    H21     H    0.40140   0.99740   0.36020   1.000
    C20     C    0.41180   0.98610   0.19005   1.000
    H22     H    0.38470   0.00990   0.14910   1.000
    C21     C    0.32770   0.20030   0.47130   1.000
    H23     H    0.38360   0.22920   0.45470   1.000
    H24     H    0.32620   0.13810   0.45310   1.000
    C22     C    0.26800   0.16400   0.47340   1.000
    H25     H    0.32870   0.14460   0.45850   1.000
    H26     H    0.22420   0.12040   0.45450   1.000
    C23     C    0.32690   0.19800   0.55090   1.000
    H27     H    0.38360   0.22440   0.56880   1.000
    H28     H    0.32300   0.13550   0.56720   1.000
    C24     C    0.33740   0.26300   0.55180   1.000
    H29     H    0.36250   0.31990   0.57080   1.000
    H30     H    0.37670   0.21330   0.56670   1.000
    O7      O    0.18302   0.36702   0.31971   1.000
    O8      O    0.21753   0.38020   0.20582   1.000
    C25     C    0.17740   0.40460   0.26092   1.000
    C26     C    0.11520   0.48353   0.25550   1.000
    C27     C    0.07890   0.52190   0.31551   1.000
    H31     H    0.09860   0.50260   0.36020   1.000
    C28     C    0.08820   0.51390   0.19005   1.000
    H32     H    0.11530   0.49010   0.14910   1.000
    C29     C    0.17230   0.29970   0.47130   1.000
    H33     H    0.11640   0.27080   0.45470   1.000
    H34     H    0.17380   0.36190   0.45310   1.000
    C30     C    0.23200   0.33600   0.47340   1.000
    H35     H    0.17130   0.35540   0.45850   1.000
    H36     H    0.27580   0.37960   0.45450   1.000
    C31     C    0.17310   0.30200   0.55090   1.000
    H37     H    0.11640   0.27560   0.56880   1.000
    H38     H    0.17700   0.36450   0.56720   1.000
    C32     C    0.16260   0.23700   0.55180   1.000
    H39     H    0.13750   0.18010   0.57080   1.000
    H40     H    0.12330   0.28670   0.56670   1.000
    O9      O    0.86702   0.68302   0.18029   1.000
    O10     O    0.88020   0.71753   0.29418   1.000
    C33     C    0.90460   0.67740   0.23908   1.000
    C34     C    0.98353   0.61520   0.24450   1.000
    C35     C    0.02190   0.57890   0.18449   1.000
    H41     H    0.00260   0.59860   0.13980   1.000
    C36     C    0.01390   0.58820   0.30995   1.000
    H42     H    0.99010   0.61530   0.35090   1.000
    C37     C    0.79970   0.67230   0.02870   1.000
    H43     H    0.77080   0.61640   0.04530   1.000
    H44     H    0.86190   0.67380   0.04690   1.000
    C38     C    0.83600   0.73200   0.02660   1.000
    H45     H    0.85540   0.67130   0.04150   1.000
    H46     H    0.87960   0.77580   0.04550   1.000
    C39     C    0.80200   0.67310   0.94910   1.000
    H47     H    0.77560   0.61640   0.93120   1.000
    H48     H    0.86450   0.67700   0.93280   1.000
    C40     C    0.73700   0.66260   0.94820   1.000
    H49     H    0.68010   0.63750   0.92920   1.000
    H50     H    0.78670   0.62330   0.93330   1.000
    O11     O    0.63298   0.81698   0.18029   1.000
    O12     O    0.61980   0.78247   0.29418   1.000
    C41     C    0.59540   0.82260   0.23908   1.000
    C42     C    0.51647   0.88480   0.24450   1.000
    C43     C    0.47810   0.92110   0.18449   1.000
    H51     H    0.49740   0.90140   0.13980   1.000
    C44     C    0.48610   0.91180   0.30995   1.000
    H52     H    0.50990   0.88470   0.35090   1.000
    C45     C    0.70030   0.82770   0.02870   1.000
    H53     H    0.72920   0.88360   0.04530   1.000
    H54     H    0.63810   0.82620   0.04690   1.000
    C46     C    0.66400   0.76800   0.02660   1.000
    H55     H    0.64460   0.82870   0.04150   1.000
    H56     H    0.62040   0.72420   0.04550   1.000
    C47     C    0.69800   0.82690   0.94910   1.000
    H57     H    0.72440   0.88360   0.93120   1.000
    H58     H    0.63550   0.82300   0.93280   1.000
    C48     C    0.76300   0.83740   0.94820   1.000
    H59     H    0.81990   0.86250   0.92920   1.000
    H60     H    0.71330   0.87670   0.93330   1.000
    O13     O    0.68302   0.63298   0.18029   1.000
    O14     O    0.71753   0.61980   0.29418   1.000
    C49     C    0.67740   0.59540   0.23908   1.000
    C50     C    0.61520   0.51647   0.24450   1.000
    C51     C    0.57890   0.47810   0.18449   1.000
    H61     H    0.59860   0.49740   0.13980   1.000
    C52     C    0.58820   0.48610   0.30995   1.000
    H62     H    0.61530   0.50990   0.35090   1.000
    C53     C    0.67230   0.70030   0.02870   1.000
    H63     H    0.61640   0.72920   0.04530   1.000
    H64     H    0.67380   0.63810   0.04690   1.000
    C54     C    0.73200   0.66400   0.02660   1.000
    H65     H    0.67130   0.64460   0.04150   1.000
    H66     H    0.77580   0.62040   0.04550   1.000
    C55     C    0.67310   0.69800   0.94910   1.000
    H67     H    0.61640   0.72440   0.93120   1.000
    H68     H    0.67700   0.63550   0.93280   1.000
    C56     C    0.66260   0.76300   0.94820   1.000
    H69     H    0.63750   0.81990   0.92920   1.000
    H70     H    0.62330   0.71330   0.93330   1.000
    O15     O    0.81698   0.86702   0.18029   1.000
    O16     O    0.78247   0.88020   0.29418   1.000
    C57     C    0.82260   0.90460   0.23908   1.000
    C58     C    0.88480   0.98353   0.24450   1.000
    C59     C    0.92110   0.02190   0.18449   1.000
    H71     H    0.90140   0.00260   0.13980   1.000
    C60     C    0.91180   0.01390   0.30995   1.000
    H72     H    0.88470   0.99010   0.35090   1.000
    C61     C    0.82770   0.79970   0.02870   1.000
    H73     H    0.88360   0.77080   0.04530   1.000
    H74     H    0.82620   0.86190   0.04690   1.000
    C62     C    0.76800   0.83600   0.02660   1.000
    H75     H    0.82870   0.85540   0.04150   1.000
    H76     H    0.72420   0.87960   0.04550   1.000
    C63     C    0.82690   0.80200   0.94910   1.000
    H77     H    0.88360   0.77560   0.93120   1.000
    H78     H    0.82300   0.86450   0.93280   1.000
    C64     C    0.83740   0.73700   0.94820   1.000
    H79     H    0.86250   0.68010   0.92920   1.000
    H80     H    0.87670   0.78670   0.93330   1.000
    O17     O    0.86702   0.81698   0.68029   1.000
    O18     O    0.88020   0.78247   0.79418   1.000
    C65     C    0.90460   0.82260   0.73908   1.000
    C66     C    0.98353   0.88480   0.74450   1.000
    C67     C    0.02190   0.92110   0.68449   1.000
    H81     H    0.00260   0.90140   0.63980   1.000
    C68     C    0.01390   0.91180   0.80995   1.000
    H82     H    0.99010   0.88470   0.85090   1.000
    C69     C    0.79970   0.82770   0.52870   1.000
    H83     H    0.77080   0.88360   0.54530   1.000
    H84     H    0.86190   0.82620   0.54690   1.000
    C70     C    0.83600   0.76800   0.52660   1.000
    H85     H    0.85540   0.82870   0.54150   1.000
    H86     H    0.87960   0.72420   0.54550   1.000
    C71     C    0.80200   0.82690   0.44910   1.000
    H87     H    0.77560   0.88360   0.43120   1.000
    H88     H    0.86450   0.82300   0.43280   1.000
    C72     C    0.73700   0.83740   0.44820   1.000
    H89     H    0.68010   0.86250   0.42920   1.000
    H90     H    0.78670   0.87670   0.43330   1.000
    O19     O    0.63298   0.68302   0.68029   1.000
    O20     O    0.61980   0.71753   0.79418   1.000
    C73     C    0.59540   0.67740   0.73908   1.000
    C74     C    0.51647   0.61520   0.74450   1.000
    C75     C    0.47810   0.57890   0.68449   1.000
    H91     H    0.49740   0.59860   0.63980   1.000
    C76     C    0.48610   0.58820   0.80995   1.000
    H92     H    0.50990   0.61530   0.85090   1.000
    C77     C    0.70030   0.67230   0.52870   1.000
    H93     H    0.72920   0.61640   0.54530   1.000
    H94     H    0.63810   0.67380   0.54690   1.000
    C78     C    0.66400   0.73200   0.52660   1.000
    H95     H    0.64460   0.67130   0.54150   1.000
    H96     H    0.62040   0.77580   0.54550   1.000
    C79     C    0.69800   0.67310   0.44910   1.000
    H97     H    0.72440   0.61640   0.43120   1.000
    H98     H    0.63550   0.67700   0.43280   1.000
    C80     C    0.76300   0.66260   0.44820   1.000
    H99     H    0.81990   0.63750   0.42920   1.000
    H100    H    0.71330   0.62330   0.43330   1.000
    O21     O    0.68302   0.86702   0.68029   1.000
    O22     O    0.71753   0.88020   0.79418   1.000
    C81     C    0.67740   0.90460   0.73908   1.000
    C82     C    0.61520   0.98353   0.74450   1.000
    C83     C    0.57890   0.02190   0.68449   1.000
    H101    H    0.59860   0.00260   0.63980   1.000
    C84     C    0.58820   0.01390   0.80995   1.000
    H102    H    0.61530   0.99010   0.85090   1.000
    C85     C    0.67230   0.79970   0.52870   1.000
    H103    H    0.61640   0.77080   0.54530   1.000
    H104    H    0.67380   0.86190   0.54690   1.000
    C86     C    0.73200   0.83600   0.52660   1.000
    H105    H    0.67130   0.85540   0.54150   1.000
    H106    H    0.77580   0.87960   0.54550   1.000
    C87     C    0.67310   0.80200   0.44910   1.000
    H107    H    0.61640   0.77560   0.43120   1.000
    H108    H    0.67700   0.86450   0.43280   1.000
    C88     C    0.66260   0.73700   0.44820   1.000
    H109    H    0.63750   0.68010   0.42920   1.000
    H110    H    0.62330   0.78670   0.43330   1.000
    O23     O    0.81698   0.63298   0.68029   1.000
    O24     O    0.78247   0.61980   0.79418   1.000
    C89     C    0.82260   0.59540   0.73908   1.000
    C90     C    0.88480   0.51647   0.74450   1.000
    C91     C    0.92110   0.47810   0.68449   1.000
    H111    H    0.90140   0.49740   0.63980   1.000
    C92     C    0.91180   0.48610   0.80995   1.000
    H112    H    0.88470   0.50990   0.85090   1.000
    C93     C    0.82770   0.70030   0.52870   1.000
    H113    H    0.88360   0.72920   0.54530   1.000
    H114    H    0.82620   0.63810   0.54690   1.000
    C94     C    0.76800   0.66400   0.52660   1.000
    H115    H    0.82870   0.64460   0.54150   1.000
    H116    H    0.72420   0.62040   0.54550   1.000
    C95     C    0.82690   0.69800   0.44910   1.000
    H117    H    0.88360   0.72440   0.43120   1.000
    H118    H    0.82300   0.63550   0.43280   1.000
    C96     C    0.83740   0.76300   0.44820   1.000
    H119    H    0.86250   0.81990   0.42920   1.000
    H120    H    0.87670   0.71330   0.43330   1.000
    O25     O    0.13298   0.31698   0.81971   1.000
    O26     O    0.11980   0.28247   0.70582   1.000
    C97     C    0.09540   0.32260   0.76092   1.000
    C98     C    0.01647   0.38480   0.75550   1.000
    C99     C    0.97810   0.42110   0.81551   1.000
    H121    H    0.99740   0.40140   0.86020   1.000
    C100    C    0.98610   0.41180   0.69005   1.000
    H122    H    0.00990   0.38470   0.64910   1.000
    C101    C    0.20030   0.32770   0.97130   1.000
    H123    H    0.22920   0.38360   0.95470   1.000
    H124    H    0.13810   0.32620   0.95310   1.000
    C102    C    0.16400   0.26800   0.97340   1.000
    H125    H    0.14460   0.32870   0.95850   1.000
    H126    H    0.12040   0.22420   0.95450   1.000
    C103    C    0.19800   0.32690   0.05090   1.000
    H127    H    0.22440   0.38360   0.06880   1.000
    H128    H    0.13550   0.32300   0.06720   1.000
    C104    C    0.26300   0.33740   0.05180   1.000
    H129    H    0.31990   0.36250   0.07080   1.000
    H130    H    0.21330   0.37670   0.06670   1.000
    O27     O    0.36702   0.18302   0.81971   1.000
    O28     O    0.38020   0.21753   0.70582   1.000
    C105    C    0.40460   0.17740   0.76092   1.000
    C106    C    0.48353   0.11520   0.75550   1.000
    C107    C    0.52190   0.07890   0.81551   1.000
    H131    H    0.50260   0.09860   0.86020   1.000
    C108    C    0.51390   0.08820   0.69005   1.000
    H132    H    0.49010   0.11530   0.64910   1.000
    C109    C    0.29970   0.17230   0.97130   1.000
    H133    H    0.27080   0.11640   0.95470   1.000
    H134    H    0.36190   0.17380   0.95310   1.000
    C110    C    0.33600   0.23200   0.97340   1.000
    H135    H    0.35540   0.17130   0.95850   1.000
    H136    H    0.37960   0.27580   0.95450   1.000
    C111    C    0.30200   0.17310   0.05090   1.000
    H137    H    0.27560   0.11640   0.06880   1.000
    H138    H    0.36450   0.17700   0.06720   1.000
    C112    C    0.23700   0.16260   0.05180   1.000
    H139    H    0.18010   0.13750   0.07080   1.000
    H140    H    0.28670   0.12330   0.06670   1.000
    O29     O    0.31698   0.36702   0.81971   1.000
    O30     O    0.28247   0.38020   0.70582   1.000
    C113    C    0.32260   0.40460   0.76092   1.000
    C114    C    0.38480   0.48353   0.75550   1.000
    C115    C    0.42110   0.52190   0.81551   1.000
    H141    H    0.40140   0.50260   0.86020   1.000
    C116    C    0.41180   0.51390   0.69005   1.000
    H142    H    0.38470   0.49010   0.64910   1.000
    C117    C    0.32770   0.29970   0.97130   1.000
    H143    H    0.38360   0.27080   0.95470   1.000
    H144    H    0.32620   0.36190   0.95310   1.000
    C118    C    0.26800   0.33600   0.97340   1.000
    H145    H    0.32870   0.35540   0.95850   1.000
    H146    H    0.22420   0.37960   0.95450   1.000
    C119    C    0.32690   0.30200   0.05090   1.000
    H147    H    0.38360   0.27560   0.06880   1.000
    H148    H    0.32300   0.36450   0.06720   1.000
    C120    C    0.33740   0.23700   0.05180   1.000
    H149    H    0.36250   0.18010   0.07080   1.000
    H150    H    0.37670   0.28670   0.06670   1.000
    O31     O    0.18302   0.13298   0.81971   1.000
    O32     O    0.21753   0.11980   0.70582   1.000
    C121    C    0.17740   0.09540   0.76092   1.000
    C122    C    0.11520   0.01647   0.75550   1.000
    C123    C    0.07890   0.97810   0.81551   1.000
    H151    H    0.09860   0.99740   0.86020   1.000
    C124    C    0.08820   0.98610   0.69005   1.000
    H152    H    0.11530   0.00990   0.64910   1.000
    C125    C    0.17230   0.20030   0.97130   1.000
    H153    H    0.11640   0.22920   0.95470   1.000
    H154    H    0.17380   0.13810   0.95310   1.000
    C126    C    0.23200   0.16400   0.97340   1.000
    H155    H    0.17130   0.14460   0.95850   1.000
    H156    H    0.27580   0.12040   0.95450   1.000
    C127    C    0.17310   0.19800   0.05090   1.000
    H157    H    0.11640   0.22440   0.06880   1.000
    H158    H    0.17700   0.13550   0.06720   1.000
    C128    C    0.16260   0.26300   0.05180   1.000
    H159    H    0.13750   0.31990   0.07080   1.000
    H160    H    0.12330   0.21330   0.06670   1.000
    Zn1     Zn   0.25000   0.25000   0.33862   1.000
    Zn2     Zn   0.25000   0.25000   0.18556   1.000
    N1      N    0.25000   0.25000   0.44530   1.000
    N2      N    0.25000   0.25000   0.57890   1.000
    Zn3     Zn   0.75000   0.75000   0.16138   1.000
    Zn4     Zn   0.75000   0.75000   0.31444   1.000
    N3      N    0.75000   0.75000   0.05470   1.000
    N4      N    0.75000   0.75000   0.92110   1.000
    Zn5     Zn   0.75000   0.75000   0.66138   1.000
    Zn6     Zn   0.75000   0.75000   0.81444   1.000
    N5      N    0.75000   0.75000   0.55470   1.000
    N6      N    0.75000   0.75000   0.42110   1.000
    Zn7     Zn   0.25000   0.25000   0.83862   1.000
    Zn8     Zn   0.25000   0.25000   0.68556   1.000
    N7      N    0.25000   0.25000   0.94530   1.000
    N8      N    0.25000   0.25000   0.07890   1.000
