# CIF file generated by openbabel 2.4.1, see http://openbabel.sf.net
data_I
_chemical_name_common 'image0'
_cell_length_a 14.9367
_cell_length_b 14.9367
_cell_length_c 19.1785
_cell_angle_alpha 90
_cell_angle_beta 90
_cell_angle_gamma 90
_space_group_name_H-M_alt 'P 1'
_space_group_name_Hall 'P 1'
loop_
    _symmetry_equiv_pos_as_xyz
    x,y,z
loop_
    _atom_site_label
    _atom_site_type_symbol
    _atom_site_fract_x
    _atom_site_fract_y
    _atom_site_fract_z
    _atom_site_occupancy
    O1      O    0.13351   0.18320   0.31823   1.000
    O2      O    0.12093   0.21415   0.20425   1.000
    C1      C    0.09639   0.17571   0.25946   1.000
    C2      C    0.01788   0.11347   0.25498   1.000
    C3      C    0.97980   0.07780   0.31518   1.000
    H1      H    0.99900   0.09800   0.35970   1.000
    C4      C    0.98700   0.08590   0.18990   1.000
    H2      H    0.01060   0.11240   0.14880   1.000
    C5      C    0.19600   0.17610   0.47040   1.000
    H3      H    0.22080   0.11860   0.45320   1.000
    H4      H    0.13400   0.18160   0.45300   1.000
    C6      C    0.16180   0.23500   0.47110   1.000
    H5      H    0.14020   0.17530   0.45530   1.000
    C7      C    0.19600   0.17630   0.54990   1.000
    H6      H    0.22020   0.11880   0.56720   1.000
    H7      H    0.13380   0.18220   0.56700   1.000
    C8      C    0.26200   0.16110   0.55000   1.000
    H8      H    0.21240   0.12240   0.56580   1.000
    O3      O    0.36649   0.31680   0.31823   1.000
    O4      O    0.37907   0.28585   0.20425   1.000
    C9      C    0.40361   0.32429   0.25946   1.000
    C10     C    0.48212   0.38653   0.25498   1.000
    C11     C    0.52020   0.42220   0.31518   1.000
    H9      H    0.50100   0.40200   0.35970   1.000
    C12     C    0.51300   0.41410   0.18990   1.000
    H10     H    0.48940   0.38760   0.14880   1.000
    C13     C    0.30400   0.32390   0.47040   1.000
    H11     H    0.27920   0.38140   0.45320   1.000
    H12     H    0.36600   0.31840   0.45300   1.000
    C14     C    0.33820   0.26500   0.47110   1.000
    H13     H    0.35980   0.32470   0.45530   1.000
    C15     C    0.30400   0.32370   0.54990   1.000
    H14     H    0.27980   0.38120   0.56720   1.000
    H15     H    0.36620   0.31780   0.56700   1.000
    C16     C    0.23800   0.33890   0.55000   1.000
    H16     H    0.28760   0.37760   0.56580   1.000
    O5      O    0.31680   0.13351   0.31823   1.000
    O6      O    0.28585   0.12093   0.20425   1.000
    C17     C    0.32429   0.09639   0.25946   1.000
    C18     C    0.38653   0.01788   0.25498   1.000
    C19     C    0.42220   0.97980   0.31518   1.000
    H17     H    0.40200   0.99900   0.35970   1.000
    C20     C    0.41410   0.98700   0.18990   1.000
    H18     H    0.38760   0.01060   0.14880   1.000
    C21     C    0.32390   0.19600   0.47040   1.000
    H19     H    0.38140   0.22080   0.45320   1.000
    H20     H    0.31840   0.13400   0.45300   1.000
    C22     C    0.26500   0.16180   0.47110   1.000
    H21     H    0.32470   0.14020   0.45530   1.000
    C23     C    0.32370   0.19600   0.54990   1.000
    H22     H    0.38120   0.22020   0.56720   1.000
    H23     H    0.31780   0.13380   0.56700   1.000
    C24     C    0.33890   0.26200   0.55000   1.000
    H24     H    0.37760   0.21240   0.56580   1.000
    O7      O    0.18320   0.36649   0.31823   1.000
    O8      O    0.21415   0.37907   0.20425   1.000
    C25     C    0.17571   0.40361   0.25946   1.000
    C26     C    0.11347   0.48212   0.25498   1.000
    C27     C    0.07780   0.52020   0.31518   1.000
    H25     H    0.09800   0.50100   0.35970   1.000
    C28     C    0.08590   0.51300   0.18990   1.000
    H26     H    0.11240   0.48940   0.14880   1.000
    C29     C    0.17610   0.30400   0.47040   1.000
    H27     H    0.11860   0.27920   0.45320   1.000
    H28     H    0.18160   0.36600   0.45300   1.000
    C30     C    0.23500   0.33820   0.47110   1.000
    H29     H    0.17530   0.35980   0.45530   1.000
    C31     C    0.17630   0.30400   0.54990   1.000
    H30     H    0.11880   0.27980   0.56720   1.000
    H31     H    0.18220   0.36620   0.56700   1.000
    C32     C    0.16110   0.23800   0.55000   1.000
    H32     H    0.12240   0.28760   0.56580   1.000
    O9      O    0.86649   0.68320   0.18177   1.000
    O10     O    0.87907   0.71415   0.29575   1.000
    C33     C    0.90361   0.67571   0.24054   1.000
    C34     C    0.98212   0.61347   0.24502   1.000
    C35     C    0.02020   0.57780   0.18482   1.000
    H33     H    0.00100   0.59800   0.14030   1.000
    C36     C    0.01300   0.58590   0.31010   1.000
    H34     H    0.98940   0.61240   0.35120   1.000
    C37     C    0.80400   0.67610   0.02960   1.000
    H35     H    0.77920   0.61860   0.04680   1.000
    H36     H    0.86600   0.68160   0.04700   1.000
    C38     C    0.83820   0.73500   0.02890   1.000
    H37     H    0.85980   0.67530   0.04470   1.000
    C39     C    0.80400   0.67630   0.95010   1.000
    H38     H    0.77980   0.61880   0.93280   1.000
    H39     H    0.86620   0.68220   0.93300   1.000
    C40     C    0.73800   0.66110   0.95000   1.000
    H40     H    0.78760   0.62240   0.93420   1.000
    O11     O    0.63351   0.81680   0.18177   1.000
    O12     O    0.62093   0.78585   0.29575   1.000
    C41     C    0.59639   0.82429   0.24054   1.000
    C42     C    0.51788   0.88653   0.24502   1.000
    C43     C    0.47980   0.92220   0.18482   1.000
    H41     H    0.49900   0.90200   0.14030   1.000
    C44     C    0.48700   0.91410   0.31010   1.000
    H42     H    0.51060   0.88760   0.35120   1.000
    C45     C    0.69600   0.82390   0.02960   1.000
    H43     H    0.72080   0.88140   0.04680   1.000
    H44     H    0.63400   0.81840   0.04700   1.000
    C46     C    0.66180   0.76500   0.02890   1.000
    H45     H    0.64020   0.82470   0.04470   1.000
    C47     C    0.69600   0.82370   0.95010   1.000
    H46     H    0.72020   0.88120   0.93280   1.000
    H47     H    0.63380   0.81780   0.93300   1.000
    C48     C    0.76200   0.83890   0.95000   1.000
    H48     H    0.71240   0.87760   0.93420   1.000
    O13     O    0.68320   0.63351   0.18177   1.000
    O14     O    0.71415   0.62093   0.29575   1.000
    C49     C    0.67571   0.59639   0.24054   1.000
    C50     C    0.61347   0.51788   0.24502   1.000
    C51     C    0.57780   0.47980   0.18482   1.000
    H49     H    0.59800   0.49900   0.14030   1.000
    C52     C    0.58590   0.48700   0.31010   1.000
    H50     H    0.61240   0.51060   0.35120   1.000
    C53     C    0.67610   0.69600   0.02960   1.000
    H51     H    0.61860   0.72080   0.04680   1.000
    H52     H    0.68160   0.63400   0.04700   1.000
    C54     C    0.73500   0.66180   0.02890   1.000
    H53     H    0.67530   0.64020   0.04470   1.000
    C55     C    0.67630   0.69600   0.95010   1.000
    H54     H    0.61880   0.72020   0.93280   1.000
    H55     H    0.68220   0.63380   0.93300   1.000
    C56     C    0.66110   0.76200   0.95000   1.000
    H56     H    0.62240   0.71240   0.93420   1.000
    O15     O    0.81680   0.86649   0.18177   1.000
    O16     O    0.78585   0.87907   0.29575   1.000
    C57     C    0.82429   0.90361   0.24054   1.000
    C58     C    0.88653   0.98212   0.24502   1.000
    C59     C    0.92220   0.02020   0.18482   1.000
    H57     H    0.90200   0.00100   0.14030   1.000
    C60     C    0.91410   0.01300   0.31010   1.000
    H58     H    0.88760   0.98940   0.35120   1.000
    C61     C    0.82390   0.80400   0.02960   1.000
    H59     H    0.88140   0.77920   0.04680   1.000
    H60     H    0.81840   0.86600   0.04700   1.000
    C62     C    0.76500   0.83820   0.02890   1.000
    H61     H    0.82470   0.85980   0.04470   1.000
    C63     C    0.82370   0.80400   0.95010   1.000
    H62     H    0.88120   0.77980   0.93280   1.000
    H63     H    0.81780   0.86620   0.93300   1.000
    C64     C    0.83890   0.73800   0.95000   1.000
    H64     H    0.87760   0.78760   0.93420   1.000
    O17     O    0.86649   0.81680   0.68177   1.000
    O18     O    0.87907   0.78585   0.79575   1.000
    C65     C    0.90361   0.82429   0.74054   1.000
    C66     C    0.98212   0.88653   0.74502   1.000
    C67     C    0.02020   0.92220   0.68482   1.000
    H65     H    0.00100   0.90200   0.64030   1.000
    C68     C    0.01300   0.91410   0.81010   1.000
    H66     H    0.98940   0.88760   0.85120   1.000
    C69     C    0.80400   0.82390   0.52960   1.000
    H67     H    0.77920   0.88140   0.54680   1.000
    H68     H    0.86600   0.81840   0.54700   1.000
    C70     C    0.83820   0.76500   0.52890   1.000
    H69     H    0.85980   0.82470   0.54470   1.000
    C71     C    0.80400   0.82370   0.45010   1.000
    H70     H    0.77980   0.88120   0.43280   1.000
    H71     H    0.86620   0.81780   0.43300   1.000
    C72     C    0.73800   0.83890   0.45000   1.000
    H72     H    0.78760   0.87760   0.43420   1.000
    O19     O    0.63351   0.68320   0.68177   1.000
    O20     O    0.62093   0.71415   0.79575   1.000
    C73     C    0.59639   0.67571   0.74054   1.000
    C74     C    0.51788   0.61347   0.74502   1.000
    C75     C    0.47980   0.57780   0.68482   1.000
    H73     H    0.49900   0.59800   0.64030   1.000
    C76     C    0.48700   0.58590   0.81010   1.000
    H74     H    0.51060   0.61240   0.85120   1.000
    C77     C    0.69600   0.67610   0.52960   1.000
    H75     H    0.72080   0.61860   0.54680   1.000
    H76     H    0.63400   0.68160   0.54700   1.000
    C78     C    0.66180   0.73500   0.52890   1.000
    H77     H    0.64020   0.67530   0.54470   1.000
    C79     C    0.69600   0.67630   0.45010   1.000
    H78     H    0.72020   0.61880   0.43280   1.000
    H79     H    0.63380   0.68220   0.43300   1.000
    C80     C    0.76200   0.66110   0.45000   1.000
    H80     H    0.71240   0.62240   0.43420   1.000
    O21     O    0.68320   0.86649   0.68177   1.000
    O22     O    0.71415   0.87907   0.79575   1.000
    C81     C    0.67571   0.90361   0.74054   1.000
    C82     C    0.61347   0.98212   0.74502   1.000
    C83     C    0.57780   0.02020   0.68482   1.000
    H81     H    0.59800   0.00100   0.64030   1.000
    C84     C    0.58590   0.01300   0.81010   1.000
    H82     H    0.61240   0.98940   0.85120   1.000
    C85     C    0.67610   0.80400   0.52960   1.000
    H83     H    0.61860   0.77920   0.54680   1.000
    H84     H    0.68160   0.86600   0.54700   1.000
    C86     C    0.73500   0.83820   0.52890   1.000
    H85     H    0.67530   0.85980   0.54470   1.000
    C87     C    0.67630   0.80400   0.45010   1.000
    H86     H    0.61880   0.77980   0.43280   1.000
    H87     H    0.68220   0.86620   0.43300   1.000
    C88     C    0.66110   0.73800   0.45000   1.000
    H88     H    0.62240   0.78760   0.43420   1.000
    O23     O    0.81680   0.63351   0.68177   1.000
    O24     O    0.78585   0.62093   0.79575   1.000
    C89     C    0.82429   0.59639   0.74054   1.000
    C90     C    0.88653   0.51788   0.74502   1.000
    C91     C    0.92220   0.47980   0.68482   1.000
    H89     H    0.90200   0.49900   0.64030   1.000
    C92     C    0.91410   0.48700   0.81010   1.000
    H90     H    0.88760   0.51060   0.85120   1.000
    C93     C    0.82390   0.69600   0.52960   1.000
    H91     H    0.88140   0.72080   0.54680   1.000
    H92     H    0.81840   0.63400   0.54700   1.000
    C94     C    0.76500   0.66180   0.52890   1.000
    H93     H    0.82470   0.64020   0.54470   1.000
    C95     C    0.82370   0.69600   0.45010   1.000
    H94     H    0.88120   0.72020   0.43280   1.000
    H95     H    0.81780   0.63380   0.43300   1.000
    C96     C    0.83890   0.76200   0.45000   1.000
    H96     H    0.87760   0.71240   0.43420   1.000
    O25     O    0.13351   0.31680   0.81823   1.000
    O26     O    0.12093   0.28585   0.70425   1.000
    C97     C    0.09639   0.32429   0.75946   1.000
    C98     C    0.01788   0.38653   0.75498   1.000
    C99     C    0.97980   0.42220   0.81518   1.000
    H97     H    0.99900   0.40200   0.85970   1.000
    C100    C    0.98700   0.41410   0.68990   1.000
    H98     H    0.01060   0.38760   0.64880   1.000
    C101    C    0.19600   0.32390   0.97040   1.000
    H99     H    0.22080   0.38140   0.95320   1.000
    H100    H    0.13400   0.31840   0.95300   1.000
    C102    C    0.16180   0.26500   0.97110   1.000
    H101    H    0.14020   0.32470   0.95530   1.000
    C103    C    0.19600   0.32370   0.04990   1.000
    H102    H    0.22020   0.38120   0.06720   1.000
    H103    H    0.13380   0.31780   0.06700   1.000
    C104    C    0.26200   0.33890   0.05000   1.000
    H104    H    0.21240   0.37760   0.06580   1.000
    O27     O    0.36649   0.18320   0.81823   1.000
    O28     O    0.37907   0.21415   0.70425   1.000
    C105    C    0.40361   0.17571   0.75946   1.000
    C106    C    0.48212   0.11347   0.75498   1.000
    C107    C    0.52020   0.07780   0.81518   1.000
    H105    H    0.50100   0.09800   0.85970   1.000
    C108    C    0.51300   0.08590   0.68990   1.000
    H106    H    0.48940   0.11240   0.64880   1.000
    C109    C    0.30400   0.17610   0.97040   1.000
    H107    H    0.27920   0.11860   0.95320   1.000
    H108    H    0.36600   0.18160   0.95300   1.000
    C110    C    0.33820   0.23500   0.97110   1.000
    H109    H    0.35980   0.17530   0.95530   1.000
    C111    C    0.30400   0.17630   0.04990   1.000
    H110    H    0.27980   0.11880   0.06720   1.000
    H111    H    0.36620   0.18220   0.06700   1.000
    C112    C    0.23800   0.16110   0.05000   1.000
    H112    H    0.28760   0.12240   0.06580   1.000
    O29     O    0.31680   0.36649   0.81823   1.000
    O30     O    0.28585   0.37907   0.70425   1.000
    C113    C    0.32429   0.40361   0.75946   1.000
    C114    C    0.38653   0.48212   0.75498   1.000
    C115    C    0.42220   0.52020   0.81518   1.000
    H113    H    0.40200   0.50100   0.85970   1.000
    C116    C    0.41410   0.51300   0.68990   1.000
    H114    H    0.38760   0.48940   0.64880   1.000
    C117    C    0.32390   0.30400   0.97040   1.000
    H115    H    0.38140   0.27920   0.95320   1.000
    H116    H    0.31840   0.36600   0.95300   1.000
    C118    C    0.26500   0.33820   0.97110   1.000
    H117    H    0.32470   0.35980   0.95530   1.000
    C119    C    0.32370   0.30400   0.04990   1.000
    H118    H    0.38120   0.27980   0.06720   1.000
    H119    H    0.31780   0.36620   0.06700   1.000
    C120    C    0.33890   0.23800   0.05000   1.000
    H120    H    0.37760   0.28760   0.06580   1.000
    O31     O    0.18320   0.13351   0.81823   1.000
    O32     O    0.21415   0.12093   0.70425   1.000
    C121    C    0.17571   0.09639   0.75946   1.000
    C122    C    0.11347   0.01788   0.75498   1.000
    C123    C    0.07780   0.97980   0.81518   1.000
    H121    H    0.09800   0.99900   0.85970   1.000
    C124    C    0.08590   0.98700   0.68990   1.000
    H122    H    0.11240   0.01060   0.64880   1.000
    C125    C    0.17610   0.19600   0.97040   1.000
    H123    H    0.11860   0.22080   0.95320   1.000
    H124    H    0.18160   0.13400   0.95300   1.000
    C126    C    0.23500   0.16180   0.97110   1.000
    H125    H    0.17530   0.14020   0.95530   1.000
    C127    C    0.17630   0.19600   0.04990   1.000
    H126    H    0.11880   0.22020   0.06720   1.000
    H127    H    0.18220   0.13380   0.06700   1.000
    C128    C    0.16110   0.26200   0.05000   1.000
    H128    H    0.12240   0.21240   0.06580   1.000
    Zn1     Zn   0.25000   0.25000   0.33713   1.000
    Zn2     Zn   0.25000   0.25000   0.18405   1.000
    N1      N    0.25000   0.25000   0.44360   1.000
    N2      N    0.25000   0.25000   0.57740   1.000
    Zn3     Zn   0.75000   0.75000   0.16287   1.000
    Zn4     Zn   0.75000   0.75000   0.31595   1.000
    N3      N    0.75000   0.75000   0.05640   1.000
    N4      N    0.75000   0.75000   0.92260   1.000
    Zn5     Zn   0.75000   0.75000   0.66287   1.000
    Zn6     Zn   0.75000   0.75000   0.81595   1.000
    N5      N    0.75000   0.75000   0.55640   1.000
    N6      N    0.75000   0.75000   0.42260   1.000
    Zn7     Zn   0.25000   0.25000   0.83713   1.000
    Zn8     Zn   0.25000   0.25000   0.68405   1.000
    N7      N    0.25000   0.25000   0.94360   1.000
    N8      N    0.25000   0.25000   0.07740   1.000
