data_functionalizedCrystal
_audit_creation_method	'EQeq! by Chris Wilmer'
_symmetry_space_group_name_H-M	'P1'
_symmetry_Int_Tables_number	1
_symmetry_cell_setting	triclinic
loop_
_symmetry_equiv_pos_as_xyz
  x,y,z
_cell_length_a	34.6957
_cell_length_b	34.6957
_cell_length_c	41.0328
_cell_angle_alpha	90
_cell_angle_beta	90
_cell_angle_gamma	90
loop_
_atom_site_label
_atom_site_type_symbol
_atom_site_fract_x
_atom_site_fract_y
_atom_site_fract_z
_atom_site_charge
Mof_Zn	Zn	0.30236	0.26245	0.74717	1.221
Mof_Zn	Zn	0.76254	0.19783	0.61923	1.223
Mof_O 	O 	0.29064	0.31706	0.74227	-0.509
Mof_O 	O 	0.25057	0.30903	0.70085	-0.605
Mof_O 	O 	0.20215	0.63874	0.71755	-0.539
Mof_O 	O 	0.25786	0.64146	0.74277	-0.543
Mof_O 	O 	0.80725	0.25384	0.6655	-0.611
Mof_O 	O 	0.81628	0.20916	0.62507	-0.466
Mof_O 	O 	0.14127	0.24043	0.62312	-0.498
Mof_O 	O 	0.14013	0.29732	0.64694	-0.554
Mof_O 	O 	0.29209	0.25448	0.79443	-0.558
Mof_O 	O 	0.2921	0.25169	0.07312	-0.566
Mof_C 	C 	0.269	0.32983	0.72114	0.481
Mof_C 	C 	0.2589	0.3717	0.72218	-0.31
Mof_H 	H 	0.2405	0.3804	0.7075	0.126
Mof_C 	C 	0.2736	0.39665	0.74173	0.088
Mof_H 	H 	0.291	0.387	0.757	0.021
Mof_C 	C 	0.26682	0.43786	0.74317	0
Mof_C 	C 	0.29182	0.46045	0.7615	-0.067
Mof_H 	H 	0.3114	0.4489	0.7735	0.057
Mof_C 	C 	0.28755	0.50028	0.76187	-0.01
Mof_H 	H 	0.3043	0.5154	0.7741	0.037
Mof_C 	C 	0.25827	0.51752	0.74392	-0.063
Mof_C 	C 	0.23326	0.49493	0.7256	-0.01
Mof_H 	H 	0.2137	0.5065	0.7136	0.028
Mof_C 	C 	0.23754	0.4551	0.72523	-0.064
Mof_H 	H 	0.2208	0.44	0.713	0.046
Mof_C 	C 	0.2569	0.55995	0.741	0.183
Mof_H 	H 	0.279	0.5723	0.7484	-0.01
Mof_C 	C 	0.2317	0.58238	0.7305	-0.41
Mof_H 	H 	0.2104	0.5708	0.7209	0.179
Mof_C 	C 	0.2313	0.62381	0.7314	0.555
Mof_C 	C 	0.8283	0.2378	0.64587	0.408
Mof_C 	C 	0.8708	0.2462	0.646	-0.25
Mof_H 	H 	0.8801	0.2678	0.6569	0.106
Mof_C 	C 	0.8954	0.2225	0.6304	0.034
Mof_H 	H 	0.885	0.2021	0.6186	0.038
Mof_C 	C 	0.93981	0.22672	0.63086	0.022
Mof_C 	C 	0.95626	0.26237	0.63762	-0.069
Mof_H 	H 	0.9407	0.2831	0.6433	0.049
Mof_C 	C 	0.996	0.267	0.63585	-0.025
Mof_H 	H 	0.007	0.2909	0.6404	0.033
Mof_C 	C 	0.0193	0.236	0.62731	-0.029
Mof_C 	C 	0.0028	0.2004	0.62056	-0.025
Mof_H 	H 	0.0184	0.1796	0.6148	0.041
Mof_C 	C 	0.96309	0.19572	0.62233	-0.071
Mof_H 	H 	0.9521	0.1719	0.6178	0.057
Mof_C 	C 	0.0605	0.242	0.6241	0.097
Mof_H 	H 	0.0736	0.2236	0.6119	0.016
Mof_C 	C 	0.0813	0.2694	0.63589	-0.302
Mof_H 	H 	0.0686	0.2903	0.6452	0.14
Mof_C 	C 	0.1249	0.27	0.63556	0.494
Mof_H 	H 	0.257	0.2094	0.8508	0.241
Mof_C 	C 	0.2754	0.2531	0.8681	0.463
Mof_H 	H 	0.2875	0.2756	0.8612	-0.112
Mof_C 	C 	0.2722	0.2537	0.90322	-0.813
Mof_C 	C 	0.3006	0.2754	0.91847	0.28
Mof_H 	H 	0.3144	0.2937	0.9067	-0.043
Mof_C 	C 	0.3083	0.2699	0.9514	-0.838
Mof_H 	H 	0.3273	0.2845	0.9616	0.313
Mof_C 	C 	0.2877	0.2426	0.96903	-0.007
Mof_C 	C 	0.2791	0.2407	0.95378	-0.282
Mof_H 	H 	0.2974	0.2545	0.9656	0.548
Mof_C 	C 	0.2516	0.2264	0.92088	0.692
Mof_H 	H 	0.2882	0.2674	0.9107	0.036
Mof_C 	C 	0.2895	0.2456	0.0026	-0.522
Mof_H 	H 	0.304	0.2661	0.0106	0.119
Mof_H 	H 	0.2973	0.236	0.0148	0.533
Mof_Zn	Zn	0.80236	0.76245	0.24717	1.222
Mof_Zn	Zn	0.26254	0.69783	0.11923	1.224
Mof_O 	O 	0.79064	0.81706	0.24227	-0.508
Mof_O 	O 	0.75057	0.80903	0.20085	-0.604
Mof_O 	O 	0.70215	0.13874	0.21755	-0.538
Mof_O 	O 	0.75786	0.14146	0.24277	-0.542
Mof_O 	O 	0.30725	0.75384	0.1655	-0.61
Mof_O 	O 	0.31628	0.70916	0.12507	-0.465
Mof_O 	O 	0.64127	0.74043	0.12312	-0.498
Mof_O 	O 	0.64013	0.79732	0.14694	-0.554
Mof_O 	O 	0.79209	0.75448	0.29443	-0.558
Mof_O 	O 	0.7921	0.75169	0.57312	-0.566
Mof_C 	C 	0.769	0.82983	0.22114	0.481
Mof_C 	C 	0.7589	0.8717	0.22218	-0.31
Mof_H 	H 	0.7405	0.8804	0.2075	0.126
Mof_C 	C 	0.7736	0.89665	0.24173	0.088
Mof_H 	H 	0.791	0.887	0.257	0.021
Mof_C 	C 	0.76682	0.93786	0.24317	0
Mof_C 	C 	0.79182	0.96045	0.2615	-0.067
Mof_H 	H 	0.8114	0.9489	0.2735	0.057
Mof_C 	C 	0.78755	0.00028	0.26187	-0.01
Mof_H 	H 	0.8043	0.0154	0.2741	0.037
Mof_C 	C 	0.75827	0.01752	0.24392	-0.063
Mof_C 	C 	0.73326	0.99493	0.2256	-0.01
Mof_H 	H 	0.7137	0.0065	0.2136	0.028
Mof_C 	C 	0.73754	0.9551	0.22523	-0.064
Mof_H 	H 	0.7208	0.94	0.213	0.046
Mof_C 	C 	0.7569	0.05995	0.241	0.183
Mof_H 	H 	0.779	0.0723	0.2484	-0.01
Mof_C 	C 	0.7317	0.08238	0.2305	-0.41
Mof_H 	H 	0.7104	0.0708	0.2209	0.179
Mof_C 	C 	0.7313	0.12381	0.2314	0.555
Mof_C 	C 	0.3283	0.7378	0.14587	0.408
Mof_C 	C 	0.3708	0.7462	0.146	-0.25
Mof_H 	H 	0.3801	0.7678	0.1569	0.106
Mof_C 	C 	0.3954	0.7225	0.1304	0.034
Mof_H 	H 	0.385	0.7021	0.1186	0.038
Mof_C 	C 	0.43981	0.72672	0.13086	0.022
Mof_C 	C 	0.45626	0.76237	0.13762	-0.069
Mof_H 	H 	0.4407	0.7831	0.1433	0.049
Mof_C 	C 	0.496	0.767	0.13585	-0.025
Mof_H 	H 	0.507	0.7909	0.1404	0.033
Mof_C 	C 	0.5193	0.736	0.12731	-0.029
Mof_C 	C 	0.5028	0.7004	0.12056	-0.025
Mof_H 	H 	0.5184	0.6796	0.1148	0.041
Mof_C 	C 	0.46309	0.69572	0.12233	-0.071
Mof_H 	H 	0.4521	0.6719	0.1178	0.057
Mof_C 	C 	0.5605	0.742	0.1241	0.097
Mof_H 	H 	0.5736	0.7236	0.1119	0.016
Mof_C 	C 	0.5813	0.7694	0.13589	-0.302
Mof_H 	H 	0.5686	0.7903	0.1452	0.14
Mof_C 	C 	0.6249	0.77	0.13556	0.494
Mof_H 	H 	0.757	0.7094	0.3508	0.241
Mof_C 	C 	0.7754	0.7531	0.3681	0.463
Mof_H 	H 	0.7875	0.7756	0.3612	-0.112
Mof_C 	C 	0.7722	0.7537	0.40322	-0.813
Mof_C 	C 	0.8006	0.7754	0.41847	0.279
Mof_H 	H 	0.8144	0.7937	0.4067	-0.043
Mof_C 	C 	0.8083	0.7699	0.4514	-0.839
Mof_H 	H 	0.8273	0.7845	0.4616	0.314
Mof_C 	C 	0.7877	0.7426	0.46903	-0.009
Mof_C 	C 	0.7791	0.7407	0.45378	-0.28
Mof_H 	H 	0.7974	0.7545	0.4656	0.55
Mof_C 	C 	0.7516	0.7264	0.42088	0.691
Mof_H 	H 	0.7882	0.7674	0.4107	0.037
Mof_C 	C 	0.7895	0.7456	0.5026	-0.523
Mof_H 	H 	0.804	0.7661	0.5106	0.119
Mof_H 	H 	0.7973	0.736	0.5148	0.533
Mof_Zn	Zn	0.69764	0.73755	0.74717	1.222
Mof_Zn	Zn	0.23746	0.80217	0.61923	1.224
Mof_O 	O 	0.70936	0.68294	0.74227	-0.508
Mof_O 	O 	0.74943	0.69097	0.70085	-0.604
Mof_O 	O 	0.79785	0.36126	0.71755	-0.538
Mof_O 	O 	0.74214	0.35854	0.74277	-0.542
Mof_O 	O 	0.19275	0.74616	0.6655	-0.61
Mof_O 	O 	0.18372	0.79084	0.62507	-0.465
Mof_O 	O 	0.85873	0.75957	0.62312	-0.498
Mof_O 	O 	0.85987	0.70268	0.64694	-0.554
Mof_O 	O 	0.70791	0.74552	0.79443	-0.558
Mof_O 	O 	0.7079	0.74831	0.07312	-0.566
Mof_C 	C 	0.731	0.67017	0.72114	0.481
Mof_C 	C 	0.7411	0.6283	0.72218	-0.31
Mof_H 	H 	0.7595	0.6196	0.7075	0.126
Mof_C 	C 	0.7264	0.60335	0.74173	0.088
Mof_H 	H 	0.709	0.613	0.757	0.021
Mof_C 	C 	0.73318	0.56214	0.74317	0
Mof_C 	C 	0.70818	0.53955	0.7615	-0.067
Mof_H 	H 	0.6886	0.5511	0.7735	0.057
Mof_C 	C 	0.71245	0.49972	0.76187	-0.01
Mof_H 	H 	0.6957	0.4846	0.7741	0.037
Mof_C 	C 	0.74173	0.48248	0.74392	-0.063
Mof_C 	C 	0.76674	0.50507	0.7256	-0.01
Mof_H 	H 	0.7863	0.4935	0.7136	0.028
Mof_C 	C 	0.76246	0.5449	0.72523	-0.064
Mof_H 	H 	0.7792	0.56	0.713	0.046
Mof_C 	C 	0.7431	0.44005	0.741	0.183
Mof_H 	H 	0.721	0.4277	0.7484	-0.01
Mof_C 	C 	0.7683	0.41762	0.7305	-0.41
Mof_H 	H 	0.7896	0.4292	0.7209	0.179
Mof_C 	C 	0.7687	0.37619	0.7314	0.555
Mof_C 	C 	0.1717	0.7622	0.64587	0.408
Mof_C 	C 	0.1292	0.7538	0.646	-0.25
Mof_H 	H 	0.1199	0.7322	0.6569	0.106
Mof_C 	C 	0.1046	0.7775	0.6304	0.034
Mof_H 	H 	0.115	0.7979	0.6186	0.038
Mof_C 	C 	0.06019	0.77328	0.63086	0.022
Mof_C 	C 	0.04374	0.73763	0.63762	-0.069
Mof_H 	H 	0.0593	0.7169	0.6433	0.049
Mof_C 	C 	0.004	0.733	0.63585	-0.025
Mof_H 	H 	0.993	0.7091	0.6404	0.033
Mof_C 	C 	0.9807	0.764	0.62731	-0.029
Mof_C 	C 	0.9972	0.7996	0.62056	-0.025
Mof_H 	H 	0.9816	0.8204	0.6148	0.041
Mof_C 	C 	0.03691	0.80428	0.62233	-0.071
Mof_H 	H 	0.0479	0.8281	0.6178	0.057
Mof_C 	C 	0.9395	0.758	0.6241	0.097
Mof_H 	H 	0.9264	0.7764	0.6119	0.016
Mof_C 	C 	0.9187	0.7306	0.63589	-0.302
Mof_H 	H 	0.9314	0.7097	0.6452	0.14
Mof_C 	C 	0.8751	0.73	0.63556	0.494
Mof_H 	H 	0.743	0.7906	0.8508	0.241
Mof_C 	C 	0.7246	0.7469	0.8681	0.463
Mof_H 	H 	0.7125	0.7244	0.8612	-0.112
Mof_C 	C 	0.7278	0.7463	0.90322	-0.813
Mof_C 	C 	0.6994	0.7246	0.91847	0.28
Mof_H 	H 	0.6856	0.7063	0.9067	-0.043
Mof_C 	C 	0.6917	0.7301	0.9514	-0.838
Mof_H 	H 	0.6727	0.7155	0.9616	0.313
Mof_C 	C 	0.7123	0.7574	0.96903	-0.007
Mof_C 	C 	0.7209	0.7593	0.95378	-0.282
Mof_H 	H 	0.7026	0.7455	0.9656	0.548
Mof_C 	C 	0.7484	0.7736	0.92088	0.692
Mof_H 	H 	0.7118	0.7326	0.9107	0.036
Mof_C 	C 	0.7105	0.7544	0.0026	-0.522
Mof_H 	H 	0.696	0.7339	0.0106	0.119
Mof_H 	H 	0.7027	0.764	0.0148	0.533
Mof_Zn	Zn	0.19764	0.23755	0.24717	1.222
Mof_Zn	Zn	0.73746	0.30217	0.11923	1.224
Mof_O 	O 	0.20936	0.18294	0.24227	-0.508
Mof_O 	O 	0.24943	0.19097	0.20085	-0.604
Mof_O 	O 	0.29785	0.86126	0.21755	-0.538
Mof_O 	O 	0.24214	0.85854	0.24277	-0.542
Mof_O 	O 	0.69275	0.24616	0.1655	-0.61
Mof_O 	O 	0.68372	0.29084	0.12507	-0.465
Mof_O 	O 	0.35873	0.25957	0.12312	-0.498
Mof_O 	O 	0.35987	0.20268	0.14694	-0.554
Mof_O 	O 	0.20791	0.24552	0.29443	-0.558
Mof_O 	O 	0.2079	0.24831	0.57312	-0.566
Mof_C 	C 	0.231	0.17017	0.22114	0.481
Mof_C 	C 	0.2411	0.1283	0.22218	-0.31
Mof_H 	H 	0.2595	0.1196	0.2075	0.126
Mof_C 	C 	0.2264	0.10335	0.24173	0.088
Mof_H 	H 	0.209	0.113	0.257	0.021
Mof_C 	C 	0.23318	0.06214	0.24317	0
Mof_C 	C 	0.20818	0.03955	0.2615	-0.067
Mof_H 	H 	0.1886	0.0511	0.2735	0.057
Mof_C 	C 	0.21245	0.99972	0.26187	-0.01
Mof_H 	H 	0.1957	0.9846	0.2741	0.037
Mof_C 	C 	0.24173	0.98248	0.24392	-0.063
Mof_C 	C 	0.26674	0.00507	0.2256	-0.01
Mof_H 	H 	0.2863	0.9935	0.2136	0.028
Mof_C 	C 	0.26246	0.0449	0.22523	-0.064
Mof_H 	H 	0.2792	0.06	0.213	0.046
Mof_C 	C 	0.2431	0.94005	0.241	0.183
Mof_H 	H 	0.221	0.9277	0.2484	-0.01
Mof_C 	C 	0.2683	0.91762	0.2305	-0.41
Mof_H 	H 	0.2896	0.9292	0.2209	0.179
Mof_C 	C 	0.2687	0.87619	0.2314	0.555
Mof_C 	C 	0.6717	0.2622	0.14587	0.408
Mof_C 	C 	0.6292	0.2538	0.146	-0.25
Mof_H 	H 	0.6199	0.2322	0.1569	0.106
Mof_C 	C 	0.6046	0.2775	0.1304	0.034
Mof_H 	H 	0.615	0.2979	0.1186	0.038
Mof_C 	C 	0.56019	0.27328	0.13086	0.022
Mof_C 	C 	0.54374	0.23763	0.13762	-0.069
Mof_H 	H 	0.5593	0.2169	0.1433	0.049
Mof_C 	C 	0.504	0.233	0.13585	-0.025
Mof_H 	H 	0.493	0.2091	0.1404	0.033
Mof_C 	C 	0.4807	0.264	0.12731	-0.029
Mof_C 	C 	0.4972	0.2996	0.12056	-0.025
Mof_H 	H 	0.4816	0.3204	0.1148	0.041
Mof_C 	C 	0.53691	0.30428	0.12233	-0.071
Mof_H 	H 	0.5479	0.3281	0.1178	0.057
Mof_C 	C 	0.4395	0.258	0.1241	0.097
Mof_H 	H 	0.4264	0.2764	0.1119	0.016
Mof_C 	C 	0.4187	0.2306	0.13589	-0.302
Mof_H 	H 	0.4314	0.2097	0.1452	0.14
Mof_C 	C 	0.3751	0.23	0.13556	0.494
Mof_H 	H 	0.243	0.2906	0.3508	0.241
Mof_C 	C 	0.2246	0.2469	0.3681	0.463
Mof_H 	H 	0.2125	0.2244	0.3612	-0.112
Mof_C 	C 	0.2278	0.2463	0.40322	-0.813
Mof_C 	C 	0.1994	0.2246	0.41847	0.279
Mof_H 	H 	0.1856	0.2063	0.4067	-0.043
Mof_C 	C 	0.1917	0.2301	0.4514	-0.839
Mof_H 	H 	0.1727	0.2155	0.4616	0.314
Mof_C 	C 	0.2123	0.2574	0.46903	-0.009
Mof_C 	C 	0.2209	0.2593	0.45378	-0.28
Mof_H 	H 	0.2026	0.2455	0.4656	0.55
Mof_C 	C 	0.2484	0.2736	0.42088	0.691
Mof_H 	H 	0.2118	0.2326	0.4107	0.037
Mof_C 	C 	0.2105	0.2544	0.5026	-0.523
Mof_H 	H 	0.196	0.2339	0.5106	0.119
Mof_H 	H 	0.2027	0.264	0.5148	0.533
Mof_Zn	Zn	0.73755	0.30236	0.74717	1.222
Mof_Zn	Zn	0.80217	0.76254	0.61923	1.224
Mof_O 	O 	0.68294	0.29064	0.74227	-0.508
Mof_O 	O 	0.69097	0.25057	0.70085	-0.604
Mof_O 	O 	0.36126	0.20215	0.71755	-0.538
Mof_O 	O 	0.35854	0.25786	0.74277	-0.542
Mof_O 	O 	0.74616	0.80725	0.6655	-0.61
Mof_O 	O 	0.79084	0.81628	0.62507	-0.465
Mof_O 	O 	0.75957	0.14127	0.62312	-0.498
Mof_O 	O 	0.70268	0.14013	0.64694	-0.554
Mof_O 	O 	0.74552	0.29209	0.79443	-0.558
Mof_O 	O 	0.74831	0.2921	0.07312	-0.566
Mof_C 	C 	0.67017	0.269	0.72114	0.481
Mof_C 	C 	0.6283	0.2589	0.72218	-0.31
Mof_H 	H 	0.6196	0.2405	0.7075	0.126
Mof_C 	C 	0.60335	0.2736	0.74173	0.088
Mof_H 	H 	0.613	0.291	0.757	0.021
Mof_C 	C 	0.56214	0.26682	0.74317	0
Mof_C 	C 	0.53955	0.29182	0.7615	-0.067
Mof_H 	H 	0.5511	0.3114	0.7735	0.057
Mof_C 	C 	0.49972	0.28755	0.76187	-0.01
Mof_H 	H 	0.4846	0.3043	0.7741	0.037
Mof_C 	C 	0.48248	0.25827	0.74392	-0.063
Mof_C 	C 	0.50507	0.23326	0.7256	-0.01
Mof_H 	H 	0.4935	0.2137	0.7136	0.028
Mof_C 	C 	0.5449	0.23754	0.72523	-0.064
Mof_H 	H 	0.56	0.2208	0.713	0.046
Mof_C 	C 	0.44005	0.2569	0.741	0.183
Mof_H 	H 	0.4277	0.279	0.7484	-0.01
Mof_C 	C 	0.41762	0.2317	0.7305	-0.41
Mof_H 	H 	0.4292	0.2104	0.7209	0.179
Mof_C 	C 	0.37619	0.2313	0.7314	0.555
Mof_C 	C 	0.7622	0.8283	0.64587	0.408
Mof_C 	C 	0.7538	0.8708	0.646	-0.25
Mof_H 	H 	0.7322	0.8801	0.6569	0.106
Mof_C 	C 	0.7775	0.8954	0.6304	0.034
Mof_H 	H 	0.7979	0.885	0.6186	0.038
Mof_C 	C 	0.77328	0.93981	0.63086	0.022
Mof_C 	C 	0.73763	0.95626	0.63762	-0.069
Mof_H 	H 	0.7169	0.9407	0.6433	0.049
Mof_C 	C 	0.733	0.996	0.63585	-0.025
Mof_H 	H 	0.7091	0.007	0.6404	0.033
Mof_C 	C 	0.764	0.0193	0.62731	-0.029
Mof_C 	C 	0.7996	0.0028	0.62056	-0.025
Mof_H 	H 	0.8204	0.0184	0.6148	0.041
Mof_C 	C 	0.80428	0.96309	0.62233	-0.071
Mof_H 	H 	0.8281	0.9521	0.6178	0.057
Mof_C 	C 	0.758	0.0605	0.6241	0.097
Mof_H 	H 	0.7764	0.0736	0.6119	0.016
Mof_C 	C 	0.7306	0.0813	0.63589	-0.302
Mof_H 	H 	0.7097	0.0686	0.6452	0.14
Mof_C 	C 	0.73	0.1249	0.63556	0.494
Mof_H 	H 	0.7906	0.257	0.8508	0.241
Mof_C 	C 	0.7469	0.2754	0.8681	0.463
Mof_H 	H 	0.7244	0.2875	0.8612	-0.112
Mof_C 	C 	0.7463	0.2722	0.90322	-0.813
Mof_C 	C 	0.7246	0.3006	0.91847	0.28
Mof_H 	H 	0.7063	0.3144	0.9067	-0.043
Mof_C 	C 	0.7301	0.3083	0.9514	-0.838
Mof_H 	H 	0.7155	0.3273	0.9616	0.313
Mof_C 	C 	0.7574	0.2877	0.96903	-0.007
Mof_C 	C 	0.7593	0.2791	0.95378	-0.282
Mof_H 	H 	0.7455	0.2974	0.9656	0.548
Mof_C 	C 	0.7736	0.2516	0.92088	0.692
Mof_H 	H 	0.7326	0.2882	0.9107	0.036
Mof_C 	C 	0.7544	0.2895	0.0026	-0.522
Mof_H 	H 	0.7339	0.304	0.0106	0.119
Mof_H 	H 	0.764	0.2973	0.0148	0.533
Mof_Zn	Zn	0.23755	0.80236	0.24717	1.222
Mof_Zn	Zn	0.30217	0.26254	0.11923	1.224
Mof_O 	O 	0.18294	0.79064	0.24227	-0.508
Mof_O 	O 	0.19097	0.75057	0.20085	-0.604
Mof_O 	O 	0.86126	0.70215	0.21755	-0.538
Mof_O 	O 	0.85854	0.75786	0.24277	-0.542
Mof_O 	O 	0.24616	0.30725	0.1655	-0.61
Mof_O 	O 	0.29084	0.31628	0.12507	-0.465
Mof_O 	O 	0.25957	0.64127	0.12312	-0.498
Mof_O 	O 	0.20268	0.64013	0.14694	-0.554
Mof_O 	O 	0.24552	0.79209	0.29443	-0.558
Mof_O 	O 	0.24831	0.7921	0.57312	-0.566
Mof_C 	C 	0.17017	0.769	0.22114	0.481
Mof_C 	C 	0.1283	0.7589	0.22218	-0.31
Mof_H 	H 	0.1196	0.7405	0.2075	0.126
Mof_C 	C 	0.10335	0.7736	0.24173	0.088
Mof_H 	H 	0.113	0.791	0.257	0.021
Mof_C 	C 	0.06214	0.76682	0.24317	0
Mof_C 	C 	0.03955	0.79182	0.2615	-0.067
Mof_H 	H 	0.0511	0.8114	0.2735	0.057
Mof_C 	C 	0.99972	0.78755	0.26187	-0.01
Mof_H 	H 	0.9846	0.8043	0.2741	0.037
Mof_C 	C 	0.98248	0.75827	0.24392	-0.063
Mof_C 	C 	0.00507	0.73326	0.2256	-0.01
Mof_H 	H 	0.9935	0.7137	0.2136	0.028
Mof_C 	C 	0.0449	0.73754	0.22523	-0.064
Mof_H 	H 	0.06	0.7208	0.213	0.046
Mof_C 	C 	0.94005	0.7569	0.241	0.183
Mof_H 	H 	0.9277	0.779	0.2484	-0.01
Mof_C 	C 	0.91762	0.7317	0.2305	-0.41
Mof_H 	H 	0.9292	0.7104	0.2209	0.179
Mof_C 	C 	0.87619	0.7313	0.2314	0.555
Mof_C 	C 	0.2622	0.3283	0.14587	0.408
Mof_C 	C 	0.2538	0.3708	0.146	-0.25
Mof_H 	H 	0.2322	0.3801	0.1569	0.106
Mof_C 	C 	0.2775	0.3954	0.1304	0.034
Mof_H 	H 	0.2979	0.385	0.1186	0.038
Mof_C 	C 	0.27328	0.43981	0.13086	0.022
Mof_C 	C 	0.23763	0.45626	0.13762	-0.069
Mof_H 	H 	0.2169	0.4407	0.1433	0.049
Mof_C 	C 	0.233	0.496	0.13585	-0.025
Mof_H 	H 	0.2091	0.507	0.1404	0.033
Mof_C 	C 	0.264	0.5193	0.12731	-0.029
Mof_C 	C 	0.2996	0.5028	0.12056	-0.025
Mof_H 	H 	0.3204	0.5184	0.1148	0.041
Mof_C 	C 	0.30428	0.46309	0.12233	-0.071
Mof_H 	H 	0.3281	0.4521	0.1178	0.057
Mof_C 	C 	0.258	0.5605	0.1241	0.097
Mof_H 	H 	0.2764	0.5736	0.1119	0.016
Mof_C 	C 	0.2306	0.5813	0.13589	-0.302
Mof_H 	H 	0.2097	0.5686	0.1452	0.14
Mof_C 	C 	0.23	0.6249	0.13556	0.494
Mof_H 	H 	0.2906	0.757	0.3508	0.241
Mof_C 	C 	0.2469	0.7754	0.3681	0.463
Mof_H 	H 	0.2244	0.7875	0.3612	-0.112
Mof_C 	C 	0.2463	0.7722	0.40322	-0.813
Mof_C 	C 	0.2246	0.8006	0.41847	0.279
Mof_H 	H 	0.2063	0.8144	0.4067	-0.043
Mof_C 	C 	0.2301	0.8083	0.4514	-0.839
Mof_H 	H 	0.2155	0.8273	0.4616	0.314
Mof_C 	C 	0.2574	0.7877	0.46903	-0.009
Mof_C 	C 	0.2593	0.7791	0.45378	-0.28
Mof_H 	H 	0.2455	0.7974	0.4656	0.55
Mof_C 	C 	0.2736	0.7516	0.42088	0.691
Mof_H 	H 	0.2326	0.7882	0.4107	0.037
Mof_C 	C 	0.2544	0.7895	0.5026	-0.523
Mof_H 	H 	0.2339	0.804	0.5106	0.119
Mof_H 	H 	0.264	0.7973	0.5148	0.533
Mof_Zn	Zn	0.26245	0.69764	0.74717	1.222
Mof_Zn	Zn	0.19783	0.23746	0.61923	1.224
Mof_O 	O 	0.31706	0.70936	0.74227	-0.508
Mof_O 	O 	0.30903	0.74943	0.70085	-0.604
Mof_O 	O 	0.63874	0.79785	0.71755	-0.538
Mof_O 	O 	0.64146	0.74214	0.74277	-0.542
Mof_O 	O 	0.25384	0.19275	0.6655	-0.61
Mof_O 	O 	0.20916	0.18372	0.62507	-0.465
Mof_O 	O 	0.24043	0.85873	0.62312	-0.498
Mof_O 	O 	0.29732	0.85987	0.64694	-0.554
Mof_O 	O 	0.25448	0.70791	0.79443	-0.558
Mof_O 	O 	0.25169	0.7079	0.07312	-0.566
Mof_C 	C 	0.32983	0.731	0.72114	0.481
Mof_C 	C 	0.3717	0.7411	0.72218	-0.31
Mof_H 	H 	0.3804	0.7595	0.7075	0.126
Mof_C 	C 	0.39665	0.7264	0.74173	0.088
Mof_H 	H 	0.387	0.709	0.757	0.021
Mof_C 	C 	0.43786	0.73318	0.74317	0
Mof_C 	C 	0.46045	0.70818	0.7615	-0.067
Mof_H 	H 	0.4489	0.6886	0.7735	0.057
Mof_C 	C 	0.50028	0.71245	0.76187	-0.01
Mof_H 	H 	0.5154	0.6957	0.7741	0.037
Mof_C 	C 	0.51752	0.74173	0.74392	-0.063
Mof_C 	C 	0.49493	0.76674	0.7256	-0.01
Mof_H 	H 	0.5065	0.7863	0.7136	0.028
Mof_C 	C 	0.4551	0.76246	0.72523	-0.064
Mof_H 	H 	0.44	0.7792	0.713	0.046
Mof_C 	C 	0.55995	0.7431	0.741	0.183
Mof_H 	H 	0.5723	0.721	0.7484	-0.01
Mof_C 	C 	0.58238	0.7683	0.7305	-0.41
Mof_H 	H 	0.5708	0.7896	0.7209	0.179
Mof_C 	C 	0.62381	0.7687	0.7314	0.555
Mof_C 	C 	0.2378	0.1717	0.64587	0.408
Mof_C 	C 	0.2462	0.1292	0.646	-0.25
Mof_H 	H 	0.2678	0.1199	0.6569	0.106
Mof_C 	C 	0.2225	0.1046	0.6304	0.034
Mof_H 	H 	0.2021	0.115	0.6186	0.038
Mof_C 	C 	0.22672	0.06019	0.63086	0.022
Mof_C 	C 	0.26237	0.04374	0.63762	-0.069
Mof_H 	H 	0.2831	0.0593	0.6433	0.049
Mof_C 	C 	0.267	0.004	0.63585	-0.025
Mof_H 	H 	0.2909	0.993	0.6404	0.033
Mof_C 	C 	0.236	0.9807	0.62731	-0.029
Mof_C 	C 	0.2004	0.9972	0.62056	-0.025
Mof_H 	H 	0.1796	0.9816	0.6148	0.041
Mof_C 	C 	0.19572	0.03691	0.62233	-0.071
Mof_H 	H 	0.1719	0.0479	0.6178	0.057
Mof_C 	C 	0.242	0.9395	0.6241	0.097
Mof_H 	H 	0.2236	0.9264	0.6119	0.016
Mof_C 	C 	0.2694	0.9187	0.63589	-0.302
Mof_H 	H 	0.2903	0.9314	0.6452	0.14
Mof_C 	C 	0.27	0.8751	0.63556	0.494
Mof_H 	H 	0.2094	0.743	0.8508	0.241
Mof_C 	C 	0.2531	0.7246	0.8681	0.463
Mof_H 	H 	0.2756	0.7125	0.8612	-0.112
Mof_C 	C 	0.2537	0.7278	0.90322	-0.813
Mof_C 	C 	0.2754	0.6994	0.91847	0.28
Mof_H 	H 	0.2937	0.6856	0.9067	-0.043
Mof_C 	C 	0.2699	0.6917	0.9514	-0.838
Mof_H 	H 	0.2845	0.6727	0.9616	0.313
Mof_C 	C 	0.2426	0.7123	0.96903	-0.007
Mof_C 	C 	0.2407	0.7209	0.95378	-0.282
Mof_H 	H 	0.2545	0.7026	0.9656	0.548
Mof_C 	C 	0.2264	0.7484	0.92088	0.692
Mof_H 	H 	0.2674	0.7118	0.9107	0.036
Mof_C 	C 	0.2456	0.7105	0.0026	-0.522
Mof_H 	H 	0.2661	0.696	0.0106	0.119
Mof_H 	H 	0.236	0.7027	0.0148	0.533
Mof_Zn	Zn	0.76245	0.19764	0.24717	1.222
Mof_Zn	Zn	0.69783	0.73746	0.11923	1.224
Mof_O 	O 	0.81706	0.20936	0.24227	-0.508
Mof_O 	O 	0.80903	0.24943	0.20085	-0.604
Mof_O 	O 	0.13874	0.29785	0.21755	-0.538
Mof_O 	O 	0.14146	0.24214	0.24277	-0.542
Mof_O 	O 	0.75384	0.69275	0.1655	-0.61
Mof_O 	O 	0.70916	0.68372	0.12507	-0.465
Mof_O 	O 	0.74043	0.35873	0.12312	-0.498
Mof_O 	O 	0.79732	0.35987	0.14694	-0.554
Mof_O 	O 	0.75448	0.20791	0.29443	-0.558
Mof_O 	O 	0.75169	0.2079	0.57312	-0.566
Mof_C 	C 	0.82983	0.231	0.22114	0.481
Mof_C 	C 	0.8717	0.2411	0.22218	-0.31
Mof_H 	H 	0.8804	0.2595	0.2075	0.126
Mof_C 	C 	0.89665	0.2264	0.24173	0.088
Mof_H 	H 	0.887	0.209	0.257	0.021
Mof_C 	C 	0.93786	0.23318	0.24317	0
Mof_C 	C 	0.96045	0.20818	0.2615	-0.067
Mof_H 	H 	0.9489	0.1886	0.2735	0.057
Mof_C 	C 	0.00028	0.21245	0.26187	-0.01
Mof_H 	H 	0.0154	0.1957	0.2741	0.037
Mof_C 	C 	0.01752	0.24173	0.24392	-0.063
Mof_C 	C 	0.99493	0.26674	0.2256	-0.01
Mof_H 	H 	0.0065	0.2863	0.2136	0.028
Mof_C 	C 	0.9551	0.26246	0.22523	-0.064
Mof_H 	H 	0.94	0.2792	0.213	0.046
Mof_C 	C 	0.05995	0.2431	0.241	0.183
Mof_H 	H 	0.0723	0.221	0.2484	-0.01
Mof_C 	C 	0.08238	0.2683	0.2305	-0.41
Mof_H 	H 	0.0708	0.2896	0.2209	0.179
Mof_C 	C 	0.12381	0.2687	0.2314	0.555
Mof_C 	C 	0.7378	0.6717	0.14587	0.408
Mof_C 	C 	0.7462	0.6292	0.146	-0.25
Mof_H 	H 	0.7678	0.6199	0.1569	0.106
Mof_C 	C 	0.7225	0.6046	0.1304	0.034
Mof_H 	H 	0.7021	0.615	0.1186	0.038
Mof_C 	C 	0.72672	0.56019	0.13086	0.022
Mof_C 	C 	0.76237	0.54374	0.13762	-0.069
Mof_H 	H 	0.7831	0.5593	0.1433	0.049
Mof_C 	C 	0.767	0.504	0.13585	-0.025
Mof_H 	H 	0.7909	0.493	0.1404	0.033
Mof_C 	C 	0.736	0.4807	0.12731	-0.029
Mof_C 	C 	0.7004	0.4972	0.12056	-0.025
Mof_H 	H 	0.6796	0.4816	0.1148	0.041
Mof_C 	C 	0.69572	0.53691	0.12233	-0.071
Mof_H 	H 	0.6719	0.5479	0.1178	0.057
Mof_C 	C 	0.742	0.4395	0.1241	0.097
Mof_H 	H 	0.7236	0.4264	0.1119	0.016
Mof_C 	C 	0.7694	0.4187	0.13589	-0.302
Mof_H 	H 	0.7903	0.4314	0.1452	0.14
Mof_C 	C 	0.77	0.3751	0.13556	0.494
Mof_H 	H 	0.7094	0.243	0.3508	0.241
Mof_C 	C 	0.7531	0.2246	0.3681	0.463
Mof_H 	H 	0.7756	0.2125	0.3612	-0.112
Mof_C 	C 	0.7537	0.2278	0.40322	-0.813
Mof_C 	C 	0.7754	0.1994	0.41847	0.279
Mof_H 	H 	0.7937	0.1856	0.4067	-0.043
Mof_C 	C 	0.7699	0.1917	0.4514	-0.839
Mof_H 	H 	0.7845	0.1727	0.4616	0.314
Mof_C 	C 	0.7426	0.2123	0.46903	-0.009
Mof_C 	C 	0.7407	0.2209	0.45378	-0.28
Mof_H 	H 	0.7545	0.2026	0.4656	0.55
Mof_C 	C 	0.7264	0.2484	0.42088	0.691
Mof_H 	H 	0.7674	0.2118	0.4107	0.037
Mof_C 	C 	0.7456	0.2105	0.5026	-0.523
Mof_H 	H 	0.7661	0.196	0.5106	0.119
Mof_H 	H 	0.736	0.2027	0.5148	0.533
Mof_Zn	Zn	0.30236	0.73755	0.24717	1.222
Mof_Zn	Zn	0.76254	0.80217	0.11923	1.224
Mof_O 	O 	0.29064	0.68294	0.24227	-0.508
Mof_O 	O 	0.25057	0.69097	0.20085	-0.604
Mof_O 	O 	0.20215	0.36126	0.21755	-0.538
Mof_O 	O 	0.25786	0.35854	0.24277	-0.542
Mof_O 	O 	0.80725	0.74616	0.1655	-0.61
Mof_O 	O 	0.81628	0.79084	0.12507	-0.465
Mof_O 	O 	0.14127	0.75957	0.12312	-0.498
Mof_O 	O 	0.14013	0.70268	0.14694	-0.554
Mof_O 	O 	0.29209	0.74552	0.29443	-0.558
Mof_O 	O 	0.2921	0.74831	0.57312	-0.566
Mof_C 	C 	0.269	0.67017	0.22114	0.481
Mof_C 	C 	0.2589	0.6283	0.22218	-0.31
Mof_H 	H 	0.2405	0.6196	0.2075	0.126
Mof_C 	C 	0.2736	0.60335	0.24173	0.088
Mof_H 	H 	0.291	0.613	0.257	0.021
Mof_C 	C 	0.26682	0.56214	0.24317	0
Mof_C 	C 	0.29182	0.53955	0.2615	-0.067
Mof_H 	H 	0.3114	0.5511	0.2735	0.057
Mof_C 	C 	0.28755	0.49972	0.26187	-0.01
Mof_H 	H 	0.3043	0.4846	0.2741	0.037
Mof_C 	C 	0.25827	0.48248	0.24392	-0.063
Mof_C 	C 	0.23326	0.50507	0.2256	-0.01
Mof_H 	H 	0.2137	0.4935	0.2136	0.028
Mof_C 	C 	0.23754	0.5449	0.22523	-0.064
Mof_H 	H 	0.2208	0.56	0.213	0.046
Mof_C 	C 	0.2569	0.44005	0.241	0.183
Mof_H 	H 	0.279	0.4277	0.2484	-0.01
Mof_C 	C 	0.2317	0.41762	0.2305	-0.41
Mof_H 	H 	0.2104	0.4292	0.2209	0.179
Mof_C 	C 	0.2313	0.37619	0.2314	0.555
Mof_C 	C 	0.8283	0.7622	0.14587	0.408
Mof_C 	C 	0.8708	0.7538	0.146	-0.25
Mof_H 	H 	0.8801	0.7322	0.1569	0.106
Mof_C 	C 	0.8954	0.7775	0.1304	0.034
Mof_H 	H 	0.885	0.7979	0.1186	0.038
Mof_C 	C 	0.93981	0.77328	0.13086	0.022
Mof_C 	C 	0.95626	0.73763	0.13762	-0.069
Mof_H 	H 	0.9407	0.7169	0.1433	0.049
Mof_C 	C 	0.996	0.733	0.13585	-0.025
Mof_H 	H 	0.007	0.7091	0.1404	0.033
Mof_C 	C 	0.0193	0.764	0.12731	-0.029
Mof_C 	C 	0.0028	0.7996	0.12056	-0.025
Mof_H 	H 	0.0184	0.8204	0.1148	0.041
Mof_C 	C 	0.96309	0.80428	0.12233	-0.071
Mof_H 	H 	0.9521	0.8281	0.1178	0.057
Mof_C 	C 	0.0605	0.758	0.1241	0.097
Mof_H 	H 	0.0736	0.7764	0.1119	0.016
Mof_C 	C 	0.0813	0.7306	0.13589	-0.302
Mof_H 	H 	0.0686	0.7097	0.1452	0.14
Mof_C 	C 	0.1249	0.73	0.13556	0.494
Mof_H 	H 	0.257	0.7906	0.3508	0.241
Mof_C 	C 	0.2754	0.7469	0.3681	0.463
Mof_H 	H 	0.2875	0.7244	0.3612	-0.112
Mof_C 	C 	0.2722	0.7463	0.40322	-0.813
Mof_C 	C 	0.3006	0.7246	0.41847	0.279
Mof_H 	H 	0.3144	0.7063	0.4067	-0.043
Mof_C 	C 	0.3083	0.7301	0.4514	-0.839
Mof_H 	H 	0.3273	0.7155	0.4616	0.314
Mof_C 	C 	0.2877	0.7574	0.46903	-0.009
Mof_C 	C 	0.2791	0.7593	0.45378	-0.28
Mof_H 	H 	0.2974	0.7455	0.4656	0.55
Mof_C 	C 	0.2516	0.7736	0.42088	0.691
Mof_H 	H 	0.2882	0.7326	0.4107	0.037
Mof_C 	C 	0.2895	0.7544	0.5026	-0.523
Mof_H 	H 	0.304	0.7339	0.5106	0.119
Mof_H 	H 	0.2973	0.764	0.5148	0.533
Mof_Zn	Zn	0.80236	0.23755	0.74717	1.222
Mof_Zn	Zn	0.26254	0.30217	0.61923	1.224
Mof_O 	O 	0.79064	0.18294	0.74227	-0.508
Mof_O 	O 	0.75057	0.19097	0.70085	-0.604
Mof_O 	O 	0.70215	0.86126	0.71755	-0.538
Mof_O 	O 	0.75786	0.85854	0.74277	-0.542
Mof_O 	O 	0.30725	0.24616	0.6655	-0.61
Mof_O 	O 	0.31628	0.29084	0.62507	-0.465
Mof_O 	O 	0.64127	0.25957	0.62312	-0.498
Mof_O 	O 	0.64013	0.20268	0.64694	-0.554
Mof_O 	O 	0.79209	0.24552	0.79443	-0.558
Mof_O 	O 	0.7921	0.24831	0.07312	-0.566
Mof_C 	C 	0.769	0.17017	0.72114	0.481
Mof_C 	C 	0.7589	0.1283	0.72218	-0.31
Mof_H 	H 	0.7405	0.1196	0.7075	0.126
Mof_C 	C 	0.7736	0.10335	0.74173	0.088
Mof_H 	H 	0.791	0.113	0.757	0.021
Mof_C 	C 	0.76682	0.06214	0.74317	0
Mof_C 	C 	0.79182	0.03955	0.7615	-0.067
Mof_H 	H 	0.8114	0.0511	0.7735	0.057
Mof_C 	C 	0.78755	0.99972	0.76187	-0.01
Mof_H 	H 	0.8043	0.9846	0.7741	0.037
Mof_C 	C 	0.75827	0.98248	0.74392	-0.063
Mof_C 	C 	0.73326	0.00507	0.7256	-0.01
Mof_H 	H 	0.7137	0.9935	0.7136	0.028
Mof_C 	C 	0.73754	0.0449	0.72523	-0.064
Mof_H 	H 	0.7208	0.06	0.713	0.046
Mof_C 	C 	0.7569	0.94005	0.741	0.183
Mof_H 	H 	0.779	0.9277	0.7484	-0.01
Mof_C 	C 	0.7317	0.91762	0.7305	-0.41
Mof_H 	H 	0.7104	0.9292	0.7209	0.179
Mof_C 	C 	0.7313	0.87619	0.7314	0.555
Mof_C 	C 	0.3283	0.2622	0.64587	0.408
Mof_C 	C 	0.3708	0.2538	0.646	-0.25
Mof_H 	H 	0.3801	0.2322	0.6569	0.106
Mof_C 	C 	0.3954	0.2775	0.6304	0.034
Mof_H 	H 	0.385	0.2979	0.6186	0.038
Mof_C 	C 	0.43981	0.27328	0.63086	0.022
Mof_C 	C 	0.45626	0.23763	0.63762	-0.069
Mof_H 	H 	0.4407	0.2169	0.6433	0.049
Mof_C 	C 	0.496	0.233	0.63585	-0.025
Mof_H 	H 	0.507	0.2091	0.6404	0.033
Mof_C 	C 	0.5193	0.264	0.62731	-0.029
Mof_C 	C 	0.5028	0.2996	0.62056	-0.025
Mof_H 	H 	0.5184	0.3204	0.6148	0.041
Mof_C 	C 	0.46309	0.30428	0.62233	-0.071
Mof_H 	H 	0.4521	0.3281	0.6178	0.057
Mof_C 	C 	0.5605	0.258	0.6241	0.097
Mof_H 	H 	0.5736	0.2764	0.6119	0.016
Mof_C 	C 	0.5813	0.2306	0.63589	-0.302
Mof_H 	H 	0.5686	0.2097	0.6452	0.14
Mof_C 	C 	0.6249	0.23	0.63556	0.494
Mof_H 	H 	0.757	0.2906	0.8508	0.241
Mof_C 	C 	0.7754	0.2469	0.8681	0.463
Mof_H 	H 	0.7875	0.2244	0.8612	-0.112
Mof_C 	C 	0.7722	0.2463	0.90322	-0.813
Mof_C 	C 	0.8006	0.2246	0.91847	0.28
Mof_H 	H 	0.8144	0.2063	0.9067	-0.043
Mof_C 	C 	0.8083	0.2301	0.9514	-0.838
Mof_H 	H 	0.8273	0.2155	0.9616	0.313
Mof_C 	C 	0.7877	0.2574	0.96903	-0.007
Mof_C 	C 	0.7791	0.2593	0.95378	-0.282
Mof_H 	H 	0.7974	0.2455	0.9656	0.548
Mof_C 	C 	0.7516	0.2736	0.92088	0.692
Mof_H 	H 	0.7882	0.2326	0.9107	0.036
Mof_C 	C 	0.7895	0.2544	0.0026	-0.522
Mof_H 	H 	0.804	0.2339	0.0106	0.119
Mof_H 	H 	0.7973	0.264	0.0148	0.533
Mof_Zn	Zn	0.69764	0.26245	0.24717	1.222
Mof_Zn	Zn	0.23746	0.19783	0.11923	1.224
Mof_O 	O 	0.70936	0.31706	0.24227	-0.508
Mof_O 	O 	0.74943	0.30903	0.20085	-0.604
Mof_O 	O 	0.79785	0.63874	0.21755	-0.538
Mof_O 	O 	0.74214	0.64146	0.24277	-0.542
Mof_O 	O 	0.19275	0.25384	0.1655	-0.61
Mof_O 	O 	0.18372	0.20916	0.12507	-0.465
Mof_O 	O 	0.85873	0.24043	0.12312	-0.498
Mof_O 	O 	0.85987	0.29732	0.14694	-0.554
Mof_O 	O 	0.70791	0.25448	0.29443	-0.558
Mof_O 	O 	0.7079	0.25169	0.57312	-0.566
Mof_C 	C 	0.731	0.32983	0.22114	0.481
Mof_C 	C 	0.7411	0.3717	0.22218	-0.31
Mof_H 	H 	0.7595	0.3804	0.2075	0.126
Mof_C 	C 	0.7264	0.39665	0.24173	0.088
Mof_H 	H 	0.709	0.387	0.257	0.021
Mof_C 	C 	0.73318	0.43786	0.24317	0
Mof_C 	C 	0.70818	0.46045	0.2615	-0.067
Mof_H 	H 	0.6886	0.4489	0.2735	0.057
Mof_C 	C 	0.71245	0.50028	0.26187	-0.01
Mof_H 	H 	0.6957	0.5154	0.2741	0.037
Mof_C 	C 	0.74173	0.51752	0.24392	-0.063
Mof_C 	C 	0.76674	0.49493	0.2256	-0.01
Mof_H 	H 	0.7863	0.5065	0.2136	0.028
Mof_C 	C 	0.76246	0.4551	0.22523	-0.064
Mof_H 	H 	0.7792	0.44	0.213	0.046
Mof_C 	C 	0.7431	0.55995	0.241	0.183
Mof_H 	H 	0.721	0.5723	0.2484	-0.01
Mof_C 	C 	0.7683	0.58238	0.2305	-0.41
Mof_H 	H 	0.7896	0.5708	0.2209	0.179
Mof_C 	C 	0.7687	0.62381	0.2314	0.555
Mof_C 	C 	0.1717	0.2378	0.14587	0.408
Mof_C 	C 	0.1292	0.2462	0.146	-0.25
Mof_H 	H 	0.1199	0.2678	0.1569	0.106
Mof_C 	C 	0.1046	0.2225	0.1304	0.034
Mof_H 	H 	0.115	0.2021	0.1186	0.038
Mof_C 	C 	0.06019	0.22672	0.13086	0.022
Mof_C 	C 	0.04374	0.26237	0.13762	-0.069
Mof_H 	H 	0.0593	0.2831	0.1433	0.049
Mof_C 	C 	0.004	0.267	0.13585	-0.025
Mof_H 	H 	0.993	0.2909	0.1404	0.033
Mof_C 	C 	0.9807	0.236	0.12731	-0.029
Mof_C 	C 	0.9972	0.2004	0.12056	-0.025
Mof_H 	H 	0.9816	0.1796	0.1148	0.041
Mof_C 	C 	0.03691	0.19572	0.12233	-0.071
Mof_H 	H 	0.0479	0.1719	0.1178	0.057
Mof_C 	C 	0.9395	0.242	0.1241	0.097
Mof_H 	H 	0.9264	0.2236	0.1119	0.016
Mof_C 	C 	0.9187	0.2694	0.13589	-0.302
Mof_H 	H 	0.9314	0.2903	0.1452	0.14
Mof_C 	C 	0.8751	0.27	0.13556	0.494
Mof_H 	H 	0.743	0.2094	0.3508	0.241
Mof_C 	C 	0.7246	0.2531	0.3681	0.463
Mof_H 	H 	0.7125	0.2756	0.3612	-0.112
Mof_C 	C 	0.7278	0.2537	0.40322	-0.813
Mof_C 	C 	0.6994	0.2754	0.41847	0.279
Mof_H 	H 	0.6856	0.2937	0.4067	-0.043
Mof_C 	C 	0.6917	0.2699	0.4514	-0.839
Mof_H 	H 	0.6727	0.2845	0.4616	0.314
Mof_C 	C 	0.7123	0.2426	0.46903	-0.009
Mof_C 	C 	0.7209	0.2407	0.45378	-0.28
Mof_H 	H 	0.7026	0.2545	0.4656	0.55
Mof_C 	C 	0.7484	0.2264	0.42088	0.691
Mof_H 	H 	0.7118	0.2674	0.4107	0.037
Mof_C 	C 	0.7105	0.2456	0.5026	-0.523
Mof_H 	H 	0.696	0.2661	0.5106	0.119
Mof_H 	H 	0.7027	0.236	0.5148	0.533
Mof_Zn	Zn	0.19764	0.76245	0.74717	1.222
Mof_Zn	Zn	0.73746	0.69783	0.61923	1.224
Mof_O 	O 	0.20936	0.81706	0.74227	-0.508
Mof_O 	O 	0.24943	0.80903	0.70085	-0.604
Mof_O 	O 	0.29785	0.13874	0.71755	-0.538
Mof_O 	O 	0.24214	0.14146	0.74277	-0.542
Mof_O 	O 	0.69275	0.75384	0.6655	-0.61
Mof_O 	O 	0.68372	0.70916	0.62507	-0.465
Mof_O 	O 	0.35873	0.74043	0.62312	-0.498
Mof_O 	O 	0.35987	0.79732	0.64694	-0.554
Mof_O 	O 	0.20791	0.75448	0.79443	-0.558
Mof_O 	O 	0.2079	0.75169	0.07312	-0.566
Mof_C 	C 	0.231	0.82983	0.72114	0.481
Mof_C 	C 	0.2411	0.8717	0.72218	-0.31
Mof_H 	H 	0.2595	0.8804	0.7075	0.126
Mof_C 	C 	0.2264	0.89665	0.74173	0.088
Mof_H 	H 	0.209	0.887	0.757	0.021
Mof_C 	C 	0.23318	0.93786	0.74317	0
Mof_C 	C 	0.20818	0.96045	0.7615	-0.067
Mof_H 	H 	0.1886	0.9489	0.7735	0.057
Mof_C 	C 	0.21245	0.00028	0.76187	-0.01
Mof_H 	H 	0.1957	0.0154	0.7741	0.037
Mof_C 	C 	0.24173	0.01752	0.74392	-0.063
Mof_C 	C 	0.26674	0.99493	0.7256	-0.01
Mof_H 	H 	0.2863	0.0065	0.7136	0.028
Mof_C 	C 	0.26246	0.9551	0.72523	-0.064
Mof_H 	H 	0.2792	0.94	0.713	0.046
Mof_C 	C 	0.2431	0.05995	0.741	0.183
Mof_H 	H 	0.221	0.0723	0.7484	-0.01
Mof_C 	C 	0.2683	0.08238	0.7305	-0.41
Mof_H 	H 	0.2896	0.0708	0.7209	0.179
Mof_C 	C 	0.2687	0.12381	0.7314	0.555
Mof_C 	C 	0.6717	0.7378	0.64587	0.408
Mof_C 	C 	0.6292	0.7462	0.646	-0.25
Mof_H 	H 	0.6199	0.7678	0.6569	0.106
Mof_C 	C 	0.6046	0.7225	0.6304	0.034
Mof_H 	H 	0.615	0.7021	0.6186	0.038
Mof_C 	C 	0.56019	0.72672	0.63086	0.022
Mof_C 	C 	0.54374	0.76237	0.63762	-0.069
Mof_H 	H 	0.5593	0.7831	0.6433	0.049
Mof_C 	C 	0.504	0.767	0.63585	-0.025
Mof_H 	H 	0.493	0.7909	0.6404	0.033
Mof_C 	C 	0.4807	0.736	0.62731	-0.029
Mof_C 	C 	0.4972	0.7004	0.62056	-0.025
Mof_H 	H 	0.4816	0.6796	0.6148	0.041
Mof_C 	C 	0.53691	0.69572	0.62233	-0.071
Mof_H 	H 	0.5479	0.6719	0.6178	0.057
Mof_C 	C 	0.4395	0.742	0.6241	0.097
Mof_H 	H 	0.4264	0.7236	0.6119	0.016
Mof_C 	C 	0.4187	0.7694	0.63589	-0.302
Mof_H 	H 	0.4314	0.7903	0.6452	0.14
Mof_C 	C 	0.3751	0.77	0.63556	0.494
Mof_H 	H 	0.243	0.7094	0.8508	0.241
Mof_C 	C 	0.2246	0.7531	0.8681	0.463
Mof_H 	H 	0.2125	0.7756	0.8612	-0.112
Mof_C 	C 	0.2278	0.7537	0.90322	-0.813
Mof_C 	C 	0.1994	0.7754	0.91847	0.28
Mof_H 	H 	0.1856	0.7937	0.9067	-0.043
Mof_C 	C 	0.1917	0.7699	0.9514	-0.838
Mof_H 	H 	0.1727	0.7845	0.9616	0.313
Mof_C 	C 	0.2123	0.7426	0.96903	-0.007
Mof_C 	C 	0.2209	0.7407	0.95378	-0.282
Mof_H 	H 	0.2026	0.7545	0.9656	0.548
Mof_C 	C 	0.2484	0.7264	0.92088	0.692
Mof_H 	H 	0.2118	0.7674	0.9107	0.036
Mof_C 	C 	0.2105	0.7456	0.0026	-0.522
Mof_H 	H 	0.196	0.7661	0.0106	0.119
Mof_H 	H 	0.2027	0.736	0.0148	0.533
Mof_Zn	Zn	0.73755	0.69764	0.24717	1.222
Mof_Zn	Zn	0.80217	0.23746	0.11923	1.224
Mof_O 	O 	0.68294	0.70936	0.24227	-0.508
Mof_O 	O 	0.69097	0.74943	0.20085	-0.604
Mof_O 	O 	0.36126	0.79785	0.21755	-0.538
Mof_O 	O 	0.35854	0.74214	0.24277	-0.542
Mof_O 	O 	0.74616	0.19275	0.1655	-0.61
Mof_O 	O 	0.79084	0.18372	0.12507	-0.465
Mof_O 	O 	0.75957	0.85873	0.12312	-0.498
Mof_O 	O 	0.70268	0.85987	0.14694	-0.554
Mof_O 	O 	0.74552	0.70791	0.29443	-0.558
Mof_O 	O 	0.74831	0.7079	0.57312	-0.566
Mof_C 	C 	0.67017	0.731	0.22114	0.481
Mof_C 	C 	0.6283	0.7411	0.22218	-0.31
Mof_H 	H 	0.6196	0.7595	0.2075	0.126
Mof_C 	C 	0.60335	0.7264	0.24173	0.088
Mof_H 	H 	0.613	0.709	0.257	0.021
Mof_C 	C 	0.56214	0.73318	0.24317	0
Mof_C 	C 	0.53955	0.70818	0.2615	-0.067
Mof_H 	H 	0.5511	0.6886	0.2735	0.057
Mof_C 	C 	0.49972	0.71245	0.26187	-0.01
Mof_H 	H 	0.4846	0.6957	0.2741	0.037
Mof_C 	C 	0.48248	0.74173	0.24392	-0.063
Mof_C 	C 	0.50507	0.76674	0.2256	-0.01
Mof_H 	H 	0.4935	0.7863	0.2136	0.028
Mof_C 	C 	0.5449	0.76246	0.22523	-0.064
Mof_H 	H 	0.56	0.7792	0.213	0.046
Mof_C 	C 	0.44005	0.7431	0.241	0.183
Mof_H 	H 	0.4277	0.721	0.2484	-0.01
Mof_C 	C 	0.41762	0.7683	0.2305	-0.41
Mof_H 	H 	0.4292	0.7896	0.2209	0.179
Mof_C 	C 	0.37619	0.7687	0.2314	0.555
Mof_C 	C 	0.7622	0.1717	0.14587	0.408
Mof_C 	C 	0.7538	0.1292	0.146	-0.25
Mof_H 	H 	0.7322	0.1199	0.1569	0.106
Mof_C 	C 	0.7775	0.1046	0.1304	0.034
Mof_H 	H 	0.7979	0.115	0.1186	0.038
Mof_C 	C 	0.77328	0.06019	0.13086	0.022
Mof_C 	C 	0.73763	0.04374	0.13762	-0.069
Mof_H 	H 	0.7169	0.0593	0.1433	0.049
Mof_C 	C 	0.733	0.004	0.13585	-0.025
Mof_H 	H 	0.7091	0.993	0.1404	0.033
Mof_C 	C 	0.764	0.9807	0.12731	-0.029
Mof_C 	C 	0.7996	0.9972	0.12056	-0.025
Mof_H 	H 	0.8204	0.9816	0.1148	0.041
Mof_C 	C 	0.80428	0.03691	0.12233	-0.071
Mof_H 	H 	0.8281	0.0479	0.1178	0.057
Mof_C 	C 	0.758	0.9395	0.1241	0.097
Mof_H 	H 	0.7764	0.9264	0.1119	0.016
Mof_C 	C 	0.7306	0.9187	0.13589	-0.302
Mof_H 	H 	0.7097	0.9314	0.1452	0.14
Mof_C 	C 	0.73	0.8751	0.13556	0.494
Mof_H 	H 	0.7906	0.743	0.3508	0.241
Mof_C 	C 	0.7469	0.7246	0.3681	0.463
Mof_H 	H 	0.7244	0.7125	0.3612	-0.112
Mof_C 	C 	0.7463	0.7278	0.40322	-0.813
Mof_C 	C 	0.7246	0.6994	0.41847	0.279
Mof_H 	H 	0.7063	0.6856	0.4067	-0.043
Mof_C 	C 	0.7301	0.6917	0.4514	-0.839
Mof_H 	H 	0.7155	0.6727	0.4616	0.314
Mof_C 	C 	0.7574	0.7123	0.46903	-0.009
Mof_C 	C 	0.7593	0.7209	0.45378	-0.28
Mof_H 	H 	0.7455	0.7026	0.4656	0.55
Mof_C 	C 	0.7736	0.7484	0.42088	0.691
Mof_H 	H 	0.7326	0.7118	0.4107	0.037
Mof_C 	C 	0.7544	0.7105	0.5026	-0.523
Mof_H 	H 	0.7339	0.696	0.5106	0.119
Mof_H 	H 	0.764	0.7027	0.5148	0.533
Mof_Zn	Zn	0.23755	0.19764	0.74717	1.222
Mof_Zn	Zn	0.30217	0.73746	0.61923	1.224
Mof_O 	O 	0.18294	0.20936	0.74227	-0.508
Mof_O 	O 	0.19097	0.24943	0.70085	-0.604
Mof_O 	O 	0.86126	0.29785	0.71755	-0.538
Mof_O 	O 	0.85854	0.24214	0.74277	-0.542
Mof_O 	O 	0.24616	0.69275	0.6655	-0.61
Mof_O 	O 	0.29084	0.68372	0.62507	-0.465
Mof_O 	O 	0.25957	0.35873	0.62312	-0.498
Mof_O 	O 	0.20268	0.35987	0.64694	-0.554
Mof_O 	O 	0.24552	0.20791	0.79443	-0.558
Mof_O 	O 	0.24831	0.2079	0.07312	-0.566
Mof_C 	C 	0.17017	0.231	0.72114	0.481
Mof_C 	C 	0.1283	0.2411	0.72218	-0.31
Mof_H 	H 	0.1196	0.2595	0.7075	0.126
Mof_C 	C 	0.10335	0.2264	0.74173	0.088
Mof_H 	H 	0.113	0.209	0.757	0.021
Mof_C 	C 	0.06214	0.23318	0.74317	0
Mof_C 	C 	0.03955	0.20818	0.7615	-0.067
Mof_H 	H 	0.0511	0.1886	0.7735	0.057
Mof_C 	C 	0.99972	0.21245	0.76187	-0.01
Mof_H 	H 	0.9846	0.1957	0.7741	0.037
Mof_C 	C 	0.98248	0.24173	0.74392	-0.063
Mof_C 	C 	0.00507	0.26674	0.7256	-0.01
Mof_H 	H 	0.9935	0.2863	0.7136	0.028
Mof_C 	C 	0.0449	0.26246	0.72523	-0.064
Mof_H 	H 	0.06	0.2792	0.713	0.046
Mof_C 	C 	0.94005	0.2431	0.741	0.183
Mof_H 	H 	0.9277	0.221	0.7484	-0.01
Mof_C 	C 	0.91762	0.2683	0.7305	-0.41
Mof_H 	H 	0.9292	0.2896	0.7209	0.179
Mof_C 	C 	0.87619	0.2687	0.7314	0.555
Mof_C 	C 	0.2622	0.6717	0.64587	0.408
Mof_C 	C 	0.2538	0.6292	0.646	-0.25
Mof_H 	H 	0.2322	0.6199	0.6569	0.106
Mof_C 	C 	0.2775	0.6046	0.6304	0.034
Mof_H 	H 	0.2979	0.615	0.6186	0.038
Mof_C 	C 	0.27328	0.56019	0.63086	0.022
Mof_C 	C 	0.23763	0.54374	0.63762	-0.069
Mof_H 	H 	0.2169	0.5593	0.6433	0.049
Mof_C 	C 	0.233	0.504	0.63585	-0.025
Mof_H 	H 	0.2091	0.493	0.6404	0.033
Mof_C 	C 	0.264	0.4807	0.62731	-0.029
Mof_C 	C 	0.2996	0.4972	0.62056	-0.025
Mof_H 	H 	0.3204	0.4816	0.6148	0.041
Mof_C 	C 	0.30428	0.53691	0.62233	-0.071
Mof_H 	H 	0.3281	0.5479	0.6178	0.057
Mof_C 	C 	0.258	0.4395	0.6241	0.097
Mof_H 	H 	0.2764	0.4264	0.6119	0.016
Mof_C 	C 	0.2306	0.4187	0.63589	-0.302
Mof_H 	H 	0.2097	0.4314	0.6452	0.14
Mof_C 	C 	0.23	0.3751	0.63556	0.494
Mof_H 	H 	0.2906	0.243	0.8508	0.241
Mof_C 	C 	0.2469	0.2246	0.8681	0.463
Mof_H 	H 	0.2244	0.2125	0.8612	-0.112
Mof_C 	C 	0.2463	0.2278	0.90322	-0.813
Mof_C 	C 	0.2246	0.1994	0.91847	0.28
Mof_H 	H 	0.2063	0.1856	0.9067	-0.043
Mof_C 	C 	0.2301	0.1917	0.9514	-0.838
Mof_H 	H 	0.2155	0.1727	0.9616	0.313
Mof_C 	C 	0.2574	0.2123	0.96903	-0.007
Mof_C 	C 	0.2593	0.2209	0.95378	-0.282
Mof_H 	H 	0.2455	0.2026	0.9656	0.548
Mof_C 	C 	0.2736	0.2484	0.92088	0.692
Mof_H 	H 	0.2326	0.2118	0.9107	0.036
Mof_C 	C 	0.2544	0.2105	0.0026	-0.522
Mof_H 	H 	0.2339	0.196	0.0106	0.119
Mof_H 	H 	0.264	0.2027	0.0148	0.533
Mof_Zn	Zn	0.26245	0.30236	0.24717	1.222
Mof_Zn	Zn	0.19783	0.76254	0.11923	1.224
Mof_O 	O 	0.31706	0.29064	0.24227	-0.508
Mof_O 	O 	0.30903	0.25057	0.20085	-0.604
Mof_O 	O 	0.63874	0.20215	0.21755	-0.538
Mof_O 	O 	0.64146	0.25786	0.24277	-0.542
Mof_O 	O 	0.25384	0.80725	0.1655	-0.61
Mof_O 	O 	0.20916	0.81628	0.12507	-0.465
Mof_O 	O 	0.24043	0.14127	0.12312	-0.498
Mof_O 	O 	0.29732	0.14013	0.14694	-0.554
Mof_O 	O 	0.25448	0.29209	0.29443	-0.558
Mof_O 	O 	0.25169	0.2921	0.57312	-0.566
Mof_C 	C 	0.32983	0.269	0.22114	0.481
Mof_C 	C 	0.3717	0.2589	0.22218	-0.31
Mof_H 	H 	0.3804	0.2405	0.2075	0.126
Mof_C 	C 	0.39665	0.2736	0.24173	0.088
Mof_H 	H 	0.387	0.291	0.257	0.021
Mof_C 	C 	0.43786	0.26682	0.24317	0
Mof_C 	C 	0.46045	0.29182	0.2615	-0.067
Mof_H 	H 	0.4489	0.3114	0.2735	0.057
Mof_C 	C 	0.50028	0.28755	0.26187	-0.01
Mof_H 	H 	0.5154	0.3043	0.2741	0.037
Mof_C 	C 	0.51752	0.25827	0.24392	-0.063
Mof_C 	C 	0.49493	0.23326	0.2256	-0.01
Mof_H 	H 	0.5065	0.2137	0.2136	0.028
Mof_C 	C 	0.4551	0.23754	0.22523	-0.064
Mof_H 	H 	0.44	0.2208	0.213	0.046
Mof_C 	C 	0.55995	0.2569	0.241	0.183
Mof_H 	H 	0.5723	0.279	0.2484	-0.01
Mof_C 	C 	0.58238	0.2317	0.2305	-0.41
Mof_H 	H 	0.5708	0.2104	0.2209	0.179
Mof_C 	C 	0.62381	0.2313	0.2314	0.555
Mof_C 	C 	0.2378	0.8283	0.14587	0.408
Mof_C 	C 	0.2462	0.8708	0.146	-0.25
Mof_H 	H 	0.2678	0.8801	0.1569	0.106
Mof_C 	C 	0.2225	0.8954	0.1304	0.034
Mof_H 	H 	0.2021	0.885	0.1186	0.038
Mof_C 	C 	0.22672	0.93981	0.13086	0.022
Mof_C 	C 	0.26237	0.95626	0.13762	-0.069
Mof_H 	H 	0.2831	0.9407	0.1433	0.049
Mof_C 	C 	0.267	0.996	0.13585	-0.025
Mof_H 	H 	0.2909	0.007	0.1404	0.033
Mof_C 	C 	0.236	0.0193	0.12731	-0.029
Mof_C 	C 	0.2004	0.0028	0.12056	-0.025
Mof_H 	H 	0.1796	0.0184	0.1148	0.041
Mof_C 	C 	0.19572	0.96309	0.12233	-0.071
Mof_H 	H 	0.1719	0.9521	0.1178	0.057
Mof_C 	C 	0.242	0.0605	0.1241	0.097
Mof_H 	H 	0.2236	0.0736	0.1119	0.016
Mof_C 	C 	0.2694	0.0813	0.13589	-0.302
Mof_H 	H 	0.2903	0.0686	0.1452	0.14
Mof_C 	C 	0.27	0.1249	0.13556	0.494
Mof_H 	H 	0.2094	0.257	0.3508	0.241
Mof_C 	C 	0.2531	0.2754	0.3681	0.463
Mof_H 	H 	0.2756	0.2875	0.3612	-0.112
Mof_C 	C 	0.2537	0.2722	0.40322	-0.813
Mof_C 	C 	0.2754	0.3006	0.41847	0.279
Mof_H 	H 	0.2937	0.3144	0.4067	-0.043
Mof_C 	C 	0.2699	0.3083	0.4514	-0.839
Mof_H 	H 	0.2845	0.3273	0.4616	0.314
Mof_C 	C 	0.2426	0.2877	0.46903	-0.009
Mof_C 	C 	0.2407	0.2791	0.45378	-0.28
Mof_H 	H 	0.2545	0.2974	0.4656	0.55
Mof_C 	C 	0.2264	0.2516	0.42088	0.691
Mof_H 	H 	0.2674	0.2882	0.4107	0.037
Mof_C 	C 	0.2456	0.2895	0.5026	-0.523
Mof_H 	H 	0.2661	0.304	0.5106	0.119
Mof_H 	H 	0.236	0.2973	0.5148	0.533
Mof_Zn	Zn	0.76245	0.80236	0.74717	1.222
Mof_Zn	Zn	0.69783	0.26254	0.61923	1.224
Mof_O 	O 	0.81706	0.79064	0.74227	-0.508
Mof_O 	O 	0.80903	0.75057	0.70085	-0.604
Mof_O 	O 	0.13874	0.70215	0.71755	-0.538
Mof_O 	O 	0.14146	0.75786	0.74277	-0.542
Mof_O 	O 	0.75384	0.30725	0.6655	-0.61
Mof_O 	O 	0.70916	0.31628	0.62507	-0.465
Mof_O 	O 	0.74043	0.64127	0.62312	-0.498
Mof_O 	O 	0.79732	0.64013	0.64694	-0.554
Mof_O 	O 	0.75448	0.79209	0.79443	-0.558
Mof_O 	O 	0.75169	0.7921	0.07312	-0.566
Mof_C 	C 	0.82983	0.769	0.72114	0.481
Mof_C 	C 	0.8717	0.7589	0.72218	-0.31
Mof_H 	H 	0.8804	0.7405	0.7075	0.126
Mof_C 	C 	0.89665	0.7736	0.74173	0.088
Mof_H 	H 	0.887	0.791	0.757	0.021
Mof_C 	C 	0.93786	0.76682	0.74317	0
Mof_C 	C 	0.96045	0.79182	0.7615	-0.067
Mof_H 	H 	0.9489	0.8114	0.7735	0.057
Mof_C 	C 	0.00028	0.78755	0.76187	-0.01
Mof_H 	H 	0.0154	0.8043	0.7741	0.037
Mof_C 	C 	0.01752	0.75827	0.74392	-0.063
Mof_C 	C 	0.99493	0.73326	0.7256	-0.01
Mof_H 	H 	0.0065	0.7137	0.7136	0.028
Mof_C 	C 	0.9551	0.73754	0.72523	-0.064
Mof_H 	H 	0.94	0.7208	0.713	0.046
Mof_C 	C 	0.05995	0.7569	0.741	0.183
Mof_H 	H 	0.0723	0.779	0.7484	-0.01
Mof_C 	C 	0.08238	0.7317	0.7305	-0.41
Mof_H 	H 	0.0708	0.7104	0.7209	0.179
Mof_C 	C 	0.12381	0.7313	0.7314	0.555
Mof_C 	C 	0.7378	0.3283	0.64587	0.408
Mof_C 	C 	0.7462	0.3708	0.646	-0.25
Mof_H 	H 	0.7678	0.3801	0.6569	0.106
Mof_C 	C 	0.7225	0.3954	0.6304	0.034
Mof_H 	H 	0.7021	0.385	0.6186	0.038
Mof_C 	C 	0.72672	0.43981	0.63086	0.022
Mof_C 	C 	0.76237	0.45626	0.63762	-0.069
Mof_H 	H 	0.7831	0.4407	0.6433	0.049
Mof_C 	C 	0.767	0.496	0.63585	-0.025
Mof_H 	H 	0.7909	0.507	0.6404	0.033
Mof_C 	C 	0.736	0.5193	0.62731	-0.029
Mof_C 	C 	0.7004	0.5028	0.62056	-0.025
Mof_H 	H 	0.6796	0.5184	0.6148	0.041
Mof_C 	C 	0.69572	0.46309	0.62233	-0.071
Mof_H 	H 	0.6719	0.4521	0.6178	0.057
Mof_C 	C 	0.742	0.5605	0.6241	0.097
Mof_H 	H 	0.7236	0.5736	0.6119	0.016
Mof_C 	C 	0.7694	0.5813	0.63589	-0.302
Mof_H 	H 	0.7903	0.5686	0.6452	0.14
Mof_C 	C 	0.77	0.6249	0.63556	0.494
Mof_H 	H 	0.7094	0.757	0.8508	0.241
Mof_C 	C 	0.7531	0.7754	0.8681	0.463
Mof_H 	H 	0.7756	0.7875	0.8612	-0.112
Mof_C 	C 	0.7537	0.7722	0.90322	-0.813
Mof_C 	C 	0.7754	0.8006	0.91847	0.28
Mof_H 	H 	0.7937	0.8144	0.9067	-0.043
Mof_C 	C 	0.7699	0.8083	0.9514	-0.838
Mof_H 	H 	0.7845	0.8273	0.9616	0.313
Mof_C 	C 	0.7426	0.7877	0.96903	-0.007
Mof_C 	C 	0.7407	0.7791	0.95378	-0.282
Mof_H 	H 	0.7545	0.7974	0.9656	0.548
Mof_C 	C 	0.7264	0.7516	0.92088	0.692
Mof_H 	H 	0.7674	0.7882	0.9107	0.036
Mof_C 	C 	0.7456	0.7895	0.0026	-0.522
Mof_H 	H 	0.7661	0.804	0.0106	0.119
Mof_H 	H 	0.736	0.7973	0.0148	0.533
Mof_Zn	Zn	0.19134	0.30866	0.66985	1.193
Mof_Zn	Zn	0.25001	0.24999	0.68293	1.214
Mof_O 	O 	0.27328	0.22672	0.721	-0.914
Mof_O 	O 	0.22614	0.27386	0.64516	-0.913
Mof_C 	C 	0.2684	0.2316	0.80783	0.696
Mof_C 	C 	0.2674	0.2326	0.84348	-0.97
Mof_C 	C 	0.2748	0.2252	0.0231	-0.563
Mof_C 	C 	0.2709	0.2291	0.05862	0.593
Mof_Zn	Zn	0.80866	0.69134	0.66985	1.193
Mof_Zn	Zn	0.74999	0.75001	0.68293	1.214
Mof_O 	O 	0.72672	0.77328	0.721	-0.914
Mof_O 	O 	0.77386	0.72614	0.64516	-0.913
Mof_C 	C 	0.7316	0.7684	0.80783	0.696
Mof_C 	C 	0.7326	0.7674	0.84348	-0.97
Mof_C 	C 	0.7252	0.7748	0.0231	-0.563
Mof_C 	C 	0.7291	0.7709	0.05862	0.593
Mof_Zn	Zn	0.30866	0.19134	0.16985	1.193
Mof_Zn	Zn	0.24999	0.25001	0.18293	1.214
Mof_O 	O 	0.22672	0.27328	0.221	-0.914
Mof_O 	O 	0.27386	0.22614	0.14516	-0.913
Mof_C 	C 	0.2316	0.2684	0.30783	0.696
Mof_C 	C 	0.2326	0.2674	0.34348	-0.97
Mof_C 	C 	0.2252	0.2748	0.5231	-0.563
Mof_C 	C 	0.2291	0.2709	0.55862	0.593
Mof_Zn	Zn	0.69134	0.19134	0.66985	1.193
Mof_Zn	Zn	0.75001	0.25001	0.68293	1.214
Mof_O 	O 	0.77328	0.27328	0.721	-0.914
Mof_O 	O 	0.72614	0.22614	0.64516	-0.913
Mof_C 	C 	0.7684	0.2684	0.80783	0.696
Mof_C 	C 	0.7674	0.2674	0.84348	-0.97
Mof_C 	C 	0.7748	0.2748	0.0231	-0.563
Mof_C 	C 	0.7709	0.2709	0.05862	0.593
Mof_Zn	Zn	0.30866	0.80866	0.66985	1.193
Mof_Zn	Zn	0.24999	0.74999	0.68293	1.214
Mof_O 	O 	0.22672	0.72672	0.721	-0.914
Mof_O 	O 	0.27386	0.77386	0.64516	-0.913
Mof_C 	C 	0.2316	0.7316	0.80783	0.696
Mof_C 	C 	0.2326	0.7326	0.84348	-0.97
Mof_C 	C 	0.2252	0.7252	0.0231	-0.563
Mof_C 	C 	0.2291	0.7291	0.05862	0.593
Mof_Zn	Zn	0.19134	0.69134	0.16985	1.193
Mof_Zn	Zn	0.25001	0.75001	0.18293	1.214
Mof_O 	O 	0.27328	0.77328	0.221	-0.914
Mof_O 	O 	0.22614	0.72614	0.14516	-0.913
Mof_C 	C 	0.2684	0.7684	0.30783	0.696
Mof_C 	C 	0.2674	0.7674	0.34348	-0.97
Mof_C 	C 	0.2748	0.7748	0.5231	-0.563
Mof_C 	C 	0.2709	0.7709	0.55862	0.593
Mof_Zn	Zn	0.80866	0.30866	0.16985	1.193
Mof_Zn	Zn	0.74999	0.24999	0.18293	1.214
Mof_O 	O 	0.72672	0.22672	0.221	-0.914
Mof_O 	O 	0.77386	0.27386	0.14516	-0.913
Mof_C 	C 	0.7316	0.2316	0.30783	0.696
Mof_C 	C 	0.7326	0.2326	0.34348	-0.97
Mof_C 	C 	0.7252	0.2252	0.5231	-0.563
Mof_C 	C 	0.7291	0.2291	0.55862	0.593
Mof_Zn	Zn	0.69134	0.80866	0.16985	1.193
Mof_Zn	Zn	0.75001	0.74999	0.18293	1.214
Mof_O 	O 	0.77328	0.72672	0.221	-0.914
Mof_O 	O 	0.72614	0.77386	0.14516	-0.913
Mof_C 	C 	0.7684	0.7316	0.30783	0.696
Mof_C 	C 	0.7674	0.7326	0.34348	-0.97
Mof_C 	C 	0.7748	0.7252	0.5231	-0.563
Mof_C 	C 	0.7709	0.7291	0.55862	0.593
Mof_Zn	Zn	0.19146	0.69146	0.69705	1.201
Mof_Zn	Zn	0.80854	0.30854	0.69705	1.201
Mof_Zn	Zn	0.30854	0.19146	0.69705	1.201
Mof_Zn	Zn	0.80854	0.69146	0.19705	1.201
Mof_Zn	Zn	0.69146	0.80854	0.69705	1.201
Mof_Zn	Zn	0.19146	0.30854	0.19705	1.201
Mof_Zn	Zn	0.30854	0.80854	0.19705	1.201
Mof_Zn	Zn	0.69146	0.19146	0.19705	1.201
_end
