data_functionalizedCrystal
_audit_creation_method	'EQeq! by Chris Wilmer'
_symmetry_space_group_name_H-M	'P1'
_symmetry_Int_Tables_number	1
_symmetry_cell_setting	triclinic
loop_
_symmetry_equiv_pos_as_xyz
  x,y,z
_cell_length_a	26.61
_cell_length_b	26.61
_cell_length_c	26.81
_cell_angle_alpha	90
_cell_angle_beta	90
_cell_angle_gamma	90
loop_
_atom_site_label
_atom_site_type_symbol
_atom_site_fract_x
_atom_site_fract_y
_atom_site_fract_z
_atom_site_charge
Mof_O 	O 	0.43508	0.98831	0.44875	-0.402
Mof_O 	O 	0.47451	0.06286	0.44881	-0.411
Mof_O 	O 	0.07023	0.02388	0.36015	-0.419
Mof_O 	O 	0.06813	0.0269	0.27694	-0.419
Mof_N 	N 	0.28785	0.11273	0.30887	-0.207
Mof_C 	C 	0.44054	0.0337	0.43548	0.359
Mof_C 	C 	0.40149	0.05467	0.39977	-0.143
Mof_C 	C 	0.36537	0.0228	0.37897	0.076
Mof_H 	H 	0.3657	0.9886	0.386	0.02
Mof_C 	C 	0.32931	0.04263	0.34804	-0.197
Mof_H 	H 	0.3057	0.0211	0.3338	0.099
Mof_C 	C 	0.32679	0.09315	0.33729	0.177
Mof_C 	C 	0.36334	0.12462	0.35765	-0.2
Mof_H 	H 	0.3631	0.1588	0.3502	0.103
Mof_C 	C 	0.40019	0.1052	0.38902	0.095
Mof_H 	H 	0.4241	0.1265	0.4028	0.009
Mof_C 	C 	0.23888	0.09162	0.31175	0.188
Mof_C 	C 	0.2172	0.08042	0.35679	-0.228
Mof_H 	H 	0.2351	0.0858	0.3861	0.112
Mof_C 	C 	0.16886	0.06106	0.35903	0.126
Mof_H 	H 	0.1549	0.0533	0.3899	-0.002
Mof_C 	C 	0.1417	0.05323	0.31699	-0.177
Mof_C 	C 	0.08892	0.03288	0.31839	0.391
Mof_C 	C 	0.16327	0.06469	0.27117	0.115
Mof_H 	H 	0.145	0.0597	0.242	0.004
Mof_C 	C 	0.21188	0.08348	0.2684	-0.218
Mof_H 	H 	0.2262	0.0906	0.2375	0.107
Mof_C 	C 	0.29432	0.15711	0.27869	0.232
Mof_C 	C 	0.25813	0.1937	0.2788	-0.277
Mof_H 	H 	0.2296	0.1897	0.2984	0.13
Mof_C 	C 	0.0104	0.0443	0.1629	0.019
Mof_H 	H 	0.0176	0.0736	0.1805	0.027
Mof_C 	C 	0.01	0.0448	0.1115	-0.076
Mof_H 	H 	0.0164	0.0745	0.0943	0.07
Mof_N 	N 	0.007	0.0524	0.0243	-0.087
Mof_C 	C 	0.9741	0.958	0.4702	0.093
Mof_H 	H 	0.9398	0.9585	0.4582	-0.057
Mof_C 	C 	0.012	0.9517	0.4724	-0.568
Mof_H 	H 	0.0448	0.9413	0.4606	0.055
Mof_H 	H 	0.9877	0.9272	0.4606	0.106
Mof_H 	H 	0.3705	0.9113	0.4708	0.033
Mof_H 	H 	0.3323	0.8423	0.5292	0.049
Mof_H 	H 	0.4816	0.8431	0.5288	0.015
Mof_H 	H 	0.4522	0.7679	0.4703	0.068
Mof_C 	C 	0.4238	0.8689	0.4494	-0.111
Mof_H 	H 	0.455	0.8642	0.4314	0.065
Mof_H 	H 	0.4042	0.8941	0.432	0.065
Mof_C 	C 	0.3948	0.8197	0.4508	-0.002
Mof_H 	H 	0.3623	0.8249	0.4352	0.026
Mof_H 	H 	0.4128	0.795	0.4312	0.029
Mof_H 	H 	0.99	0.9275	0.4582	0.078
Mof_O 	O 	0.56492	0.01169	0.44875	-0.422
Mof_O 	O 	0.52549	0.93714	0.44881	-0.416
Mof_O 	O 	0.92977	0.97612	0.36015	-0.406
Mof_O 	O 	0.93187	0.9731	0.27694	-0.405
Mof_N 	N 	0.71215	0.88727	0.30887	-0.21
Mof_C 	C 	0.55946	0.9663	0.43548	0.396
Mof_C 	C 	0.59851	0.94533	0.39977	-0.177
Mof_C 	C 	0.63463	0.9772	0.37897	0.147
Mof_H 	H 	0.6343	0.0114	0.386	-0.016
Mof_C 	C 	0.67069	0.95737	0.34804	-0.238
Mof_H 	H 	0.6943	0.9789	0.3338	0.119
Mof_C 	C 	0.67321	0.90685	0.33729	0.201
Mof_C 	C 	0.63666	0.87538	0.35765	-0.224
Mof_H 	H 	0.6369	0.8412	0.3502	0.111
Mof_C 	C 	0.59981	0.8948	0.38902	0.125
Mof_H 	H 	0.5759	0.8735	0.4028	-0
Mof_C 	C 	0.76112	0.90838	0.31175	0.189
Mof_C 	C 	0.7828	0.91958	0.35679	-0.227
Mof_H 	H 	0.7649	0.9142	0.3861	0.113
Mof_C 	C 	0.83114	0.93894	0.35903	0.127
Mof_H 	H 	0.8451	0.9467	0.3899	-0.001
Mof_C 	C 	0.8583	0.94677	0.31699	-0.173
Mof_C 	C 	0.91108	0.96712	0.31839	0.39
Mof_C 	C 	0.83673	0.93531	0.27117	0.115
Mof_H 	H 	0.855	0.9403	0.242	0.008
Mof_C 	C 	0.78812	0.91652	0.2684	-0.216
Mof_H 	H 	0.7738	0.9094	0.2375	0.109
Mof_C 	C 	0.70568	0.84289	0.27869	0.234
Mof_C 	C 	0.74187	0.8063	0.2788	-0.278
Mof_H 	H 	0.7704	0.8103	0.2984	0.131
Mof_C 	C 	0.9896	0.9557	0.1629	0.036
Mof_H 	H 	0.9824	0.9264	0.1805	0.028
Mof_C 	C 	0.99	0.9552	0.1115	-0.06
Mof_H 	H 	0.9836	0.9255	0.0943	0.07
Mof_N 	N 	0.993	0.9476	0.0243	-0.078
Mof_C 	C 	0.0259	0.042	0.4702	-0.121
Mof_H 	H 	0.0602	0.0415	0.4582	0.094
Mof_C 	C 	0.988	0.0483	0.4724	0.532
Mof_H 	H 	0.9552	0.0587	0.4606	-0.018
Mof_H 	H 	0.0123	0.0728	0.4606	-0.071
Mof_H 	H 	0.6295	0.0887	0.4708	0.032
Mof_H 	H 	0.6677	0.1577	0.5292	0.048
Mof_H 	H 	0.5184	0.1569	0.5288	0.015
Mof_H 	H 	0.5478	0.2321	0.4703	0.068
Mof_C 	C 	0.5762	0.1311	0.4494	-0.111
Mof_H 	H 	0.545	0.1358	0.4314	0.064
Mof_H 	H 	0.5958	0.1059	0.432	0.064
Mof_C 	C 	0.6052	0.1803	0.4508	-0.002
Mof_H 	H 	0.6377	0.1751	0.4352	0.025
Mof_H 	H 	0.5872	0.205	0.4312	0.028
Mof_H 	H 	0.01	0.0725	0.4582	-0.043
Mof_O 	O 	0.01169	0.43508	0.44875	-0.422
Mof_O 	O 	0.93714	0.47451	0.44881	-0.417
Mof_O 	O 	0.97612	0.07023	0.36015	-0.41
Mof_O 	O 	0.9731	0.06813	0.27694	-0.409
Mof_N 	N 	0.88727	0.28785	0.30887	-0.21
Mof_C 	C 	0.9663	0.44054	0.43548	0.396
Mof_C 	C 	0.94533	0.40149	0.39977	-0.178
Mof_C 	C 	0.9772	0.36537	0.37897	0.149
Mof_H 	H 	0.0114	0.3657	0.386	-0.017
Mof_C 	C 	0.95737	0.32931	0.34804	-0.239
Mof_H 	H 	0.9789	0.3057	0.3338	0.119
Mof_C 	C 	0.90685	0.32679	0.33729	0.201
Mof_C 	C 	0.87538	0.36334	0.35765	-0.225
Mof_H 	H 	0.8412	0.3631	0.3502	0.111
Mof_C 	C 	0.8948	0.40019	0.38902	0.125
Mof_H 	H 	0.8735	0.4241	0.4028	-0.001
Mof_C 	C 	0.90838	0.23888	0.31175	0.19
Mof_C 	C 	0.91958	0.2172	0.35679	-0.228
Mof_H 	H 	0.9142	0.2351	0.3861	0.113
Mof_C 	C 	0.93894	0.16886	0.35903	0.128
Mof_H 	H 	0.9467	0.1549	0.3899	-0.002
Mof_C 	C 	0.94677	0.1417	0.31699	-0.174
Mof_C 	C 	0.96712	0.08892	0.31839	0.39
Mof_C 	C 	0.93531	0.16327	0.27117	0.116
Mof_H 	H 	0.9403	0.145	0.242	0.007
Mof_C 	C 	0.91652	0.21188	0.2684	-0.217
Mof_H 	H 	0.9094	0.2262	0.2375	0.109
Mof_C 	C 	0.84289	0.29432	0.27869	0.233
Mof_C 	C 	0.8063	0.25813	0.2788	-0.278
Mof_H 	H 	0.8103	0.2296	0.2984	0.13
Mof_C 	C 	0.9557	0.0104	0.1629	0.029
Mof_H 	H 	0.9264	0.0176	0.1805	0.026
Mof_C 	C 	0.9552	0.01	0.1115	-0.066
Mof_H 	H 	0.9255	0.0164	0.0943	0.069
Mof_N 	N 	0.9476	0.007	0.0243	-0.082
Mof_C 	C 	0.042	0.9741	0.4702	0.688
Mof_H 	H 	0.0415	0.9398	0.4582	-0.072
Mof_C 	C 	0.0483	0.012	0.4724	-0.424
Mof_H 	H 	0.0587	0.0448	0.4606	0.11
Mof_H 	H 	0.0728	0.9877	0.4606	0.006
Mof_H 	H 	0.0887	0.3705	0.4708	0.032
Mof_H 	H 	0.1577	0.3323	0.5292	0.048
Mof_H 	H 	0.1569	0.4816	0.5288	0.015
Mof_H 	H 	0.2321	0.4522	0.4703	0.068
Mof_C 	C 	0.1311	0.4238	0.4494	-0.111
Mof_H 	H 	0.1358	0.455	0.4314	0.064
Mof_H 	H 	0.1059	0.4042	0.432	0.064
Mof_C 	C 	0.1803	0.3948	0.4508	-0.002
Mof_H 	H 	0.1751	0.3623	0.4352	0.025
Mof_H 	H 	0.205	0.4128	0.4312	0.028
Mof_H 	H 	0.0725	0.99	0.4582	-0.066
Mof_O 	O 	0.98831	0.56492	0.44875	-0.401
Mof_O 	O 	0.06286	0.52549	0.44881	-0.41
Mof_O 	O 	0.02388	0.92977	0.36015	-0.413
Mof_O 	O 	0.0269	0.93187	0.27694	-0.412
Mof_N 	N 	0.11273	0.71215	0.30887	-0.206
Mof_C 	C 	0.0337	0.55946	0.43548	0.361
Mof_C 	C 	0.05467	0.59851	0.39977	-0.143
Mof_C 	C 	0.0228	0.63463	0.37897	0.079
Mof_H 	H 	0.9886	0.6343	0.386	0.02
Mof_C 	C 	0.04263	0.67069	0.34804	-0.197
Mof_H 	H 	0.0211	0.6943	0.3338	0.1
Mof_C 	C 	0.09315	0.67321	0.33729	0.178
Mof_C 	C 	0.12462	0.63666	0.35765	-0.2
Mof_H 	H 	0.1588	0.6369	0.3502	0.103
Mof_C 	C 	0.1052	0.59981	0.38902	0.096
Mof_H 	H 	0.1265	0.5759	0.4028	0.009
Mof_C 	C 	0.09162	0.76112	0.31175	0.188
Mof_C 	C 	0.08042	0.7828	0.35679	-0.226
Mof_H 	H 	0.0858	0.7649	0.3861	0.112
Mof_C 	C 	0.06106	0.83114	0.35903	0.125
Mof_H 	H 	0.0533	0.8451	0.3899	-0
Mof_C 	C 	0.05323	0.8583	0.31699	-0.175
Mof_C 	C 	0.03288	0.91108	0.31839	0.39
Mof_C 	C 	0.06469	0.83673	0.27117	0.115
Mof_H 	H 	0.0597	0.855	0.242	0.005
Mof_C 	C 	0.08348	0.78812	0.2684	-0.217
Mof_H 	H 	0.0906	0.7738	0.2375	0.107
Mof_C 	C 	0.15711	0.70568	0.27869	0.232
Mof_C 	C 	0.1937	0.74187	0.2788	-0.277
Mof_H 	H 	0.1897	0.7704	0.2984	0.131
Mof_C 	C 	0.0443	0.9896	0.1629	0.03
Mof_H 	H 	0.0736	0.9824	0.1805	0.029
Mof_C 	C 	0.0448	0.99	0.1115	-0.065
Mof_H 	H 	0.0745	0.9836	0.0943	0.07
Mof_N 	N 	0.0524	0.993	0.0243	-0.081
Mof_C 	C 	0.958	0.0259	0.4702	-0.712
Mof_H 	H 	0.9585	0.0602	0.4582	0.107
Mof_C 	C 	0.9517	0.988	0.4724	0.379
Mof_H 	H 	0.9413	0.9552	0.4606	-0.072
Mof_H 	H 	0.9272	0.0123	0.4606	0.03
Mof_H 	H 	0.9113	0.6295	0.4708	0.033
Mof_H 	H 	0.8423	0.6677	0.5292	0.049
Mof_H 	H 	0.8431	0.5184	0.5288	0.015
Mof_H 	H 	0.7679	0.5478	0.4703	0.068
Mof_C 	C 	0.8689	0.5762	0.4494	-0.111
Mof_H 	H 	0.8642	0.545	0.4314	0.065
Mof_H 	H 	0.8941	0.5958	0.432	0.065
Mof_C 	C 	0.8197	0.6052	0.4508	-0.002
Mof_H 	H 	0.8249	0.6377	0.4352	0.025
Mof_H 	H 	0.795	0.5872	0.4312	0.029
Mof_H 	H 	0.9275	0.01	0.4582	0.102
Mof_O 	O 	0.06492	0.48831	0.05125	-0.416
Mof_O 	O 	0.02549	0.56286	0.05119	-0.421
Mof_O 	O 	0.42977	0.52388	0.13985	-0.415
Mof_O 	O 	0.43187	0.5269	0.22306	-0.413
Mof_N 	N 	0.21215	0.61273	0.19113	-0.208
Mof_C 	C 	0.05946	0.5337	0.06452	0.378
Mof_C 	C 	0.09851	0.55467	0.10023	-0.163
Mof_C 	C 	0.13463	0.5228	0.12103	0.114
Mof_H 	H 	0.1343	0.4886	0.114	0
Mof_C 	C 	0.17069	0.54263	0.15196	-0.219
Mof_H 	H 	0.1943	0.5211	0.1662	0.109
Mof_C 	C 	0.17321	0.59315	0.16271	0.189
Mof_C 	C 	0.13666	0.62462	0.14235	-0.214
Mof_H 	H 	0.1369	0.6588	0.1498	0.106
Mof_C 	C 	0.09981	0.6052	0.11098	0.111
Mof_H 	H 	0.0759	0.6265	0.0972	0.001
Mof_C 	C 	0.26112	0.59162	0.18825	0.189
Mof_C 	C 	0.2828	0.58042	0.14321	-0.228
Mof_H 	H 	0.2649	0.5858	0.1139	0.111
Mof_C 	C 	0.33114	0.56106	0.14097	0.127
Mof_H 	H 	0.3451	0.5533	0.1101	-0.003
Mof_C 	C 	0.3583	0.55323	0.18301	-0.176
Mof_C 	C 	0.41108	0.53288	0.18161	0.391
Mof_C 	C 	0.33673	0.56469	0.22883	0.116
Mof_H 	H 	0.355	0.5597	0.258	0.006
Mof_C 	C 	0.28812	0.58348	0.2316	-0.217
Mof_H 	H 	0.2738	0.5906	0.2625	0.109
Mof_C 	C 	0.20568	0.65711	0.22131	0.232
Mof_C 	C 	0.24187	0.6937	0.2212	-0.277
Mof_H 	H 	0.2704	0.6897	0.2016	0.13
Mof_C 	C 	0.4896	0.5443	0.3371	0.029
Mof_H 	H 	0.4824	0.5736	0.3195	0.028
Mof_C 	C 	0.49	0.5448	0.3885	-0.079
Mof_H 	H 	0.4836	0.5745	0.4057	0.075
Mof_N 	N 	0.493	0.5524	0.4757	-0.08
Mof_C 	C 	0.5259	0.458	0.0298	-0.02
Mof_H 	H 	0.5602	0.4585	0.0418	0.019
Mof_C 	C 	0.488	0.4517	0.0276	-0.029
Mof_H 	H 	0.4552	0.4413	0.0394	0.02
Mof_H 	H 	0.5123	0.4272	0.0394	0.019
Mof_H 	H 	0.1295	0.4113	0.0292	0.037
Mof_H 	H 	0.1677	0.3423	0.9708	0.063
Mof_H 	H 	0.0184	0.3431	0.9712	0.027
Mof_H 	H 	0.0478	0.2679	0.0297	0.07
Mof_C 	C 	0.0762	0.3689	0.0506	-0.103
Mof_H 	H 	0.045	0.3642	0.0686	0.06
Mof_H 	H 	0.0958	0.3941	0.068	0.061
Mof_C 	C 	0.1052	0.3197	0.0492	0.005
Mof_H 	H 	0.1377	0.3249	0.0648	0.022
Mof_H 	H 	0.0872	0.295	0.0688	0.025
Mof_H 	H 	0.51	0.4275	0.0418	0.018
Mof_O 	O 	0.93508	0.51169	0.05125	-0.412
Mof_O 	O 	0.97451	0.43714	0.05119	-0.41
Mof_O 	O 	0.57023	0.47612	0.13985	-0.415
Mof_O 	O 	0.56813	0.4731	0.22306	-0.413
Mof_N 	N 	0.78785	0.38727	0.19113	-0.208
Mof_C 	C 	0.94054	0.4663	0.06452	0.377
Mof_C 	C 	0.90149	0.44533	0.10023	-0.159
Mof_C 	C 	0.86537	0.4772	0.12103	0.112
Mof_H 	H 	0.8657	0.5114	0.114	0.002
Mof_C 	C 	0.82931	0.45737	0.15196	-0.217
Mof_H 	H 	0.8057	0.4789	0.1662	0.109
Mof_C 	C 	0.82679	0.40685	0.16271	0.189
Mof_C 	C 	0.86334	0.37538	0.14235	-0.212
Mof_H 	H 	0.8631	0.3412	0.1498	0.107
Mof_C 	C 	0.90019	0.3948	0.11098	0.109
Mof_H 	H 	0.9241	0.3735	0.0972	0.005
Mof_C 	C 	0.73888	0.40838	0.18825	0.189
Mof_C 	C 	0.7172	0.41958	0.14321	-0.228
Mof_H 	H 	0.7351	0.4142	0.1139	0.111
Mof_C 	C 	0.66886	0.43894	0.14097	0.127
Mof_H 	H 	0.6549	0.4467	0.1101	-0.003
Mof_C 	C 	0.6417	0.44677	0.18301	-0.176
Mof_C 	C 	0.58892	0.46712	0.18161	0.391
Mof_C 	C 	0.66327	0.43531	0.22883	0.116
Mof_H 	H 	0.645	0.4403	0.258	0.006
Mof_C 	C 	0.71188	0.41652	0.2316	-0.217
Mof_H 	H 	0.7262	0.4094	0.2625	0.109
Mof_C 	C 	0.79432	0.34289	0.22131	0.233
Mof_C 	C 	0.75813	0.3063	0.2212	-0.278
Mof_H 	H 	0.7296	0.3103	0.2016	0.13
Mof_C 	C 	0.5104	0.4557	0.3371	0.029
Mof_H 	H 	0.5176	0.4264	0.3195	0.028
Mof_C 	C 	0.51	0.4552	0.3885	-0.079
Mof_H 	H 	0.5164	0.4255	0.4057	0.075
Mof_N 	N 	0.507	0.4476	0.4757	-0.08
Mof_C 	C 	0.4741	0.542	0.0298	-0.02
Mof_H 	H 	0.4398	0.5415	0.0418	0.019
Mof_C 	C 	0.512	0.5483	0.0276	-0.029
Mof_H 	H 	0.5448	0.5587	0.0394	0.02
Mof_H 	H 	0.4877	0.5728	0.0394	0.019
Mof_H 	H 	0.8705	0.5887	0.0292	0.037
Mof_H 	H 	0.8323	0.6577	0.9708	0.063
Mof_H 	H 	0.9816	0.6569	0.9712	0.032
Mof_H 	H 	0.9522	0.7321	0.0297	0.073
Mof_C 	C 	0.9238	0.6311	0.0506	-0.105
Mof_H 	H 	0.955	0.6358	0.0686	0.064
Mof_H 	H 	0.9042	0.6059	0.068	0.063
Mof_C 	C 	0.8948	0.6803	0.0492	0.005
Mof_H 	H 	0.8623	0.6751	0.0648	0.022
Mof_H 	H 	0.9128	0.705	0.0688	0.027
Mof_H 	H 	0.49	0.5725	0.0418	0.018
Mof_O 	O 	0.48831	0.93508	0.05125	-0.412
Mof_O 	O 	0.56286	0.97451	0.05119	-0.411
Mof_O 	O 	0.52388	0.57023	0.13985	-0.415
Mof_O 	O 	0.5269	0.56813	0.22306	-0.413
Mof_N 	N 	0.61273	0.78785	0.19113	-0.208
Mof_C 	C 	0.5337	0.94054	0.06452	0.377
Mof_C 	C 	0.55467	0.90149	0.10023	-0.159
Mof_C 	C 	0.5228	0.86537	0.12103	0.112
Mof_H 	H 	0.4886	0.8657	0.114	0.002
Mof_C 	C 	0.54263	0.82931	0.15196	-0.217
Mof_H 	H 	0.5211	0.8057	0.1662	0.109
Mof_C 	C 	0.59315	0.82679	0.16271	0.189
Mof_C 	C 	0.62462	0.86334	0.14235	-0.212
Mof_H 	H 	0.6588	0.8631	0.1498	0.107
Mof_C 	C 	0.6052	0.90019	0.11098	0.109
Mof_H 	H 	0.6265	0.9241	0.0972	0.005
Mof_C 	C 	0.59162	0.73888	0.18825	0.189
Mof_C 	C 	0.58042	0.7172	0.14321	-0.228
Mof_H 	H 	0.5858	0.7351	0.1139	0.111
Mof_C 	C 	0.56106	0.66886	0.14097	0.127
Mof_H 	H 	0.5533	0.6549	0.1101	-0.003
Mof_C 	C 	0.55323	0.6417	0.18301	-0.176
Mof_C 	C 	0.53288	0.58892	0.18161	0.391
Mof_C 	C 	0.56469	0.66327	0.22883	0.116
Mof_H 	H 	0.5597	0.645	0.258	0.006
Mof_C 	C 	0.58348	0.71188	0.2316	-0.217
Mof_H 	H 	0.5906	0.7262	0.2625	0.109
Mof_C 	C 	0.65711	0.79432	0.22131	0.233
Mof_C 	C 	0.6937	0.75813	0.2212	-0.278
Mof_H 	H 	0.6897	0.7296	0.2016	0.13
Mof_C 	C 	0.5443	0.5104	0.3371	0.029
Mof_H 	H 	0.5736	0.5176	0.3195	0.028
Mof_C 	C 	0.5448	0.51	0.3885	-0.079
Mof_H 	H 	0.5745	0.5164	0.4057	0.075
Mof_N 	N 	0.5524	0.507	0.4757	-0.08
Mof_C 	C 	0.458	0.4741	0.0298	-0.02
Mof_H 	H 	0.4585	0.4398	0.0418	0.019
Mof_C 	C 	0.4517	0.512	0.0276	-0.029
Mof_H 	H 	0.4413	0.5448	0.0394	0.02
Mof_H 	H 	0.4272	0.4877	0.0394	0.019
Mof_H 	H 	0.4113	0.8705	0.0292	0.037
Mof_H 	H 	0.3423	0.8323	0.9708	0.063
Mof_H 	H 	0.3431	0.9816	0.9712	0.032
Mof_H 	H 	0.2679	0.9522	0.0297	0.073
Mof_C 	C 	0.3689	0.9238	0.0506	-0.105
Mof_H 	H 	0.3642	0.955	0.0686	0.064
Mof_H 	H 	0.3941	0.9042	0.068	0.063
Mof_C 	C 	0.3197	0.8948	0.0492	0.005
Mof_H 	H 	0.3249	0.8623	0.0648	0.022
Mof_H 	H 	0.295	0.9128	0.0688	0.026
Mof_H 	H 	0.4275	0.49	0.0418	0.018
Mof_O 	O 	0.51169	0.06492	0.05125	-0.416
Mof_O 	O 	0.43714	0.02549	0.05119	-0.421
Mof_O 	O 	0.47612	0.42977	0.13985	-0.415
Mof_O 	O 	0.4731	0.43187	0.22306	-0.413
Mof_N 	N 	0.38727	0.21215	0.19113	-0.208
Mof_C 	C 	0.4663	0.05946	0.06452	0.378
Mof_C 	C 	0.44533	0.09851	0.10023	-0.163
Mof_C 	C 	0.4772	0.13463	0.12103	0.114
Mof_H 	H 	0.5114	0.1343	0.114	0
Mof_C 	C 	0.45737	0.17069	0.15196	-0.219
Mof_H 	H 	0.4789	0.1943	0.1662	0.109
Mof_C 	C 	0.40685	0.17321	0.16271	0.189
Mof_C 	C 	0.37538	0.13666	0.14235	-0.214
Mof_H 	H 	0.3412	0.1369	0.1498	0.106
Mof_C 	C 	0.3948	0.09981	0.11098	0.111
Mof_H 	H 	0.3735	0.0759	0.0972	0.001
Mof_C 	C 	0.40838	0.26112	0.18825	0.189
Mof_C 	C 	0.41958	0.2828	0.14321	-0.228
Mof_H 	H 	0.4142	0.2649	0.1139	0.111
Mof_C 	C 	0.43894	0.33114	0.14097	0.127
Mof_H 	H 	0.4467	0.3451	0.1101	-0.003
Mof_C 	C 	0.44677	0.3583	0.18301	-0.176
Mof_C 	C 	0.46712	0.41108	0.18161	0.391
Mof_C 	C 	0.43531	0.33673	0.22883	0.115
Mof_H 	H 	0.4403	0.355	0.258	0.006
Mof_C 	C 	0.41652	0.28812	0.2316	-0.217
Mof_H 	H 	0.4094	0.2738	0.2625	0.109
Mof_C 	C 	0.34289	0.20568	0.22131	0.232
Mof_C 	C 	0.3063	0.24187	0.2212	-0.277
Mof_H 	H 	0.3103	0.2704	0.2016	0.13
Mof_C 	C 	0.4557	0.4896	0.3371	0.029
Mof_H 	H 	0.4264	0.4824	0.3195	0.028
Mof_C 	C 	0.4552	0.49	0.3885	-0.079
Mof_H 	H 	0.4255	0.4836	0.4057	0.075
Mof_N 	N 	0.4476	0.493	0.4757	-0.08
Mof_C 	C 	0.542	0.5259	0.0298	-0.02
Mof_H 	H 	0.5415	0.5602	0.0418	0.019
Mof_C 	C 	0.5483	0.488	0.0276	-0.029
Mof_H 	H 	0.5587	0.4552	0.0394	0.02
Mof_H 	H 	0.5728	0.5123	0.0394	0.019
Mof_H 	H 	0.5887	0.1295	0.0292	0.037
Mof_H 	H 	0.6577	0.1677	0.9708	0.063
Mof_H 	H 	0.6569	0.0184	0.9712	0.027
Mof_H 	H 	0.7321	0.0478	0.0297	0.071
Mof_C 	C 	0.6311	0.0762	0.0506	-0.103
Mof_H 	H 	0.6358	0.045	0.0686	0.06
Mof_H 	H 	0.6059	0.0958	0.068	0.061
Mof_C 	C 	0.6803	0.1052	0.0492	0.005
Mof_H 	H 	0.6751	0.1377	0.0648	0.022
Mof_H 	H 	0.705	0.0872	0.0688	0.025
Mof_H 	H 	0.5725	0.51	0.0418	0.018
Mof_O 	O 	0.56492	0.01169	0.55125	-0.422
Mof_O 	O 	0.52549	0.93714	0.55119	-0.416
Mof_O 	O 	0.92977	0.97612	0.63985	-0.406
Mof_O 	O 	0.93187	0.9731	0.72306	-0.405
Mof_N 	N 	0.71215	0.88727	0.69113	-0.21
Mof_C 	C 	0.55946	0.9663	0.56452	0.396
Mof_C 	C 	0.59851	0.94533	0.60023	-0.177
Mof_C 	C 	0.63463	0.9772	0.62103	0.147
Mof_H 	H 	0.6343	0.0114	0.614	-0.016
Mof_C 	C 	0.67069	0.95737	0.65196	-0.238
Mof_H 	H 	0.6943	0.9789	0.6662	0.119
Mof_C 	C 	0.67321	0.90685	0.66271	0.201
Mof_C 	C 	0.63666	0.87538	0.64235	-0.224
Mof_H 	H 	0.6369	0.8412	0.6498	0.111
Mof_C 	C 	0.59981	0.8948	0.61098	0.125
Mof_H 	H 	0.5759	0.8735	0.5972	-0
Mof_C 	C 	0.76112	0.90838	0.68825	0.19
Mof_C 	C 	0.7828	0.91958	0.64321	-0.227
Mof_H 	H 	0.7649	0.9142	0.6139	0.113
Mof_C 	C 	0.83114	0.93894	0.64097	0.127
Mof_H 	H 	0.8451	0.9467	0.6101	-0.001
Mof_C 	C 	0.8583	0.94677	0.68301	-0.172
Mof_C 	C 	0.91108	0.96712	0.68161	0.39
Mof_C 	C 	0.83673	0.93531	0.72883	0.115
Mof_H 	H 	0.855	0.9403	0.758	0.008
Mof_C 	C 	0.78812	0.91652	0.7316	-0.216
Mof_H 	H 	0.7738	0.9094	0.7625	0.11
Mof_C 	C 	0.70568	0.84289	0.72131	0.234
Mof_C 	C 	0.74187	0.8063	0.7212	-0.278
Mof_H 	H 	0.7704	0.8103	0.7016	0.132
Mof_C 	C 	0.9896	0.9557	0.8371	0.036
Mof_H 	H 	0.9824	0.9264	0.8195	0.029
Mof_C 	C 	0.99	0.9552	0.8885	-0.059
Mof_H 	H 	0.9836	0.9255	0.9057	0.072
Mof_N 	N 	0.993	0.9476	0.9757	-0.066
Mof_C 	C 	0.0259	0.042	0.5298	-0.121
Mof_H 	H 	0.0602	0.0415	0.5418	0.094
Mof_C 	C 	0.988	0.0483	0.5276	0.532
Mof_H 	H 	0.9552	0.0587	0.5394	-0.018
Mof_H 	H 	0.0123	0.0728	0.5394	-0.071
Mof_H 	H 	0.6295	0.0887	0.5292	0.032
Mof_H 	H 	0.6677	0.1577	0.4708	0.048
Mof_H 	H 	0.5184	0.1569	0.4712	0.015
Mof_H 	H 	0.5478	0.2321	0.5297	0.068
Mof_C 	C 	0.5762	0.1311	0.5506	-0.111
Mof_H 	H 	0.545	0.1358	0.5686	0.064
Mof_H 	H 	0.5958	0.1059	0.568	0.065
Mof_C 	C 	0.6052	0.1803	0.5492	-0.002
Mof_H 	H 	0.6377	0.1751	0.5648	0.025
Mof_H 	H 	0.5872	0.205	0.5688	0.028
Mof_H 	H 	0.01	0.0725	0.5418	-0.043
Mof_O 	O 	0.43508	0.98831	0.55125	-0.401
Mof_O 	O 	0.47451	0.06286	0.55119	-0.41
Mof_O 	O 	0.07023	0.02388	0.63985	-0.418
Mof_O 	O 	0.06813	0.0269	0.72306	-0.417
Mof_N 	N 	0.28785	0.11273	0.69113	-0.206
Mof_C 	C 	0.44054	0.0337	0.56452	0.36
Mof_C 	C 	0.40149	0.05467	0.60023	-0.142
Mof_C 	C 	0.36537	0.0228	0.62103	0.077
Mof_H 	H 	0.3657	0.9886	0.614	0.021
Mof_C 	C 	0.32931	0.04263	0.65196	-0.196
Mof_H 	H 	0.3057	0.0211	0.6662	0.1
Mof_C 	C 	0.32679	0.09315	0.66271	0.177
Mof_C 	C 	0.36334	0.12462	0.64235	-0.2
Mof_H 	H 	0.3631	0.1588	0.6498	0.103
Mof_C 	C 	0.40019	0.1052	0.61098	0.095
Mof_H 	H 	0.4241	0.1265	0.5972	0.009
Mof_C 	C 	0.23888	0.09162	0.68825	0.189
Mof_C 	C 	0.2172	0.08042	0.64321	-0.228
Mof_H 	H 	0.2351	0.0858	0.6139	0.112
Mof_C 	C 	0.16886	0.06106	0.64097	0.127
Mof_H 	H 	0.1549	0.0533	0.6101	-0.003
Mof_C 	C 	0.1417	0.05323	0.68301	-0.177
Mof_C 	C 	0.08892	0.03288	0.68161	0.391
Mof_C 	C 	0.16327	0.06469	0.72883	0.116
Mof_H 	H 	0.145	0.0597	0.758	0.005
Mof_C 	C 	0.21188	0.08348	0.7316	-0.218
Mof_H 	H 	0.2262	0.0906	0.7625	0.108
Mof_C 	C 	0.29432	0.15711	0.72131	0.232
Mof_C 	C 	0.25813	0.1937	0.7212	-0.277
Mof_H 	H 	0.2296	0.1897	0.7016	0.13
Mof_C 	C 	0.0104	0.0443	0.8371	0.019
Mof_H 	H 	0.0176	0.0736	0.8195	0.028
Mof_C 	C 	0.01	0.0448	0.8885	-0.075
Mof_H 	H 	0.0164	0.0745	0.9057	0.072
Mof_N 	N 	0.007	0.0524	0.9757	-0.075
Mof_C 	C 	0.9741	0.958	0.5298	0.093
Mof_H 	H 	0.9398	0.9585	0.5418	-0.057
Mof_C 	C 	0.012	0.9517	0.5276	-0.568
Mof_H 	H 	0.0448	0.9413	0.5394	0.055
Mof_H 	H 	0.9877	0.9272	0.5394	0.106
Mof_H 	H 	0.3705	0.9113	0.5292	0.033
Mof_H 	H 	0.3323	0.8423	0.4708	0.049
Mof_H 	H 	0.4816	0.8431	0.4712	0.015
Mof_H 	H 	0.4522	0.7679	0.5297	0.068
Mof_C 	C 	0.4238	0.8689	0.5506	-0.111
Mof_H 	H 	0.455	0.8642	0.5686	0.065
Mof_H 	H 	0.4042	0.8941	0.568	0.065
Mof_C 	C 	0.3948	0.8197	0.5492	-0.002
Mof_H 	H 	0.3623	0.8249	0.5648	0.026
Mof_H 	H 	0.4128	0.795	0.5688	0.029
Mof_H 	H 	0.99	0.9275	0.5418	0.078
Mof_O 	O 	0.98831	0.56492	0.55125	-0.401
Mof_O 	O 	0.06286	0.52549	0.55119	-0.41
Mof_O 	O 	0.02388	0.92977	0.63985	-0.413
Mof_O 	O 	0.0269	0.93187	0.72306	-0.411
Mof_N 	N 	0.11273	0.71215	0.69113	-0.206
Mof_C 	C 	0.0337	0.55946	0.56452	0.361
Mof_C 	C 	0.05467	0.59851	0.60023	-0.143
Mof_C 	C 	0.0228	0.63463	0.62103	0.079
Mof_H 	H 	0.9886	0.6343	0.614	0.02
Mof_C 	C 	0.04263	0.67069	0.65196	-0.197
Mof_H 	H 	0.0211	0.6943	0.6662	0.1
Mof_C 	C 	0.09315	0.67321	0.66271	0.178
Mof_C 	C 	0.12462	0.63666	0.64235	-0.2
Mof_H 	H 	0.1588	0.6369	0.6498	0.103
Mof_C 	C 	0.1052	0.59981	0.61098	0.096
Mof_H 	H 	0.1265	0.5759	0.5972	0.009
Mof_C 	C 	0.09162	0.76112	0.68825	0.188
Mof_C 	C 	0.08042	0.7828	0.64321	-0.226
Mof_H 	H 	0.0858	0.7649	0.6139	0.112
Mof_C 	C 	0.06106	0.83114	0.64097	0.125
Mof_H 	H 	0.0533	0.8451	0.6101	-0
Mof_C 	C 	0.05323	0.8583	0.68301	-0.174
Mof_C 	C 	0.03288	0.91108	0.68161	0.39
Mof_C 	C 	0.06469	0.83673	0.72883	0.115
Mof_H 	H 	0.0597	0.855	0.758	0.006
Mof_C 	C 	0.08348	0.78812	0.7316	-0.217
Mof_H 	H 	0.0906	0.7738	0.7625	0.108
Mof_C 	C 	0.15711	0.70568	0.72131	0.232
Mof_C 	C 	0.1937	0.74187	0.7212	-0.277
Mof_H 	H 	0.1897	0.7704	0.7016	0.131
Mof_C 	C 	0.0443	0.9896	0.8371	0.03
Mof_H 	H 	0.0736	0.9824	0.8195	0.03
Mof_C 	C 	0.0448	0.99	0.8885	-0.065
Mof_H 	H 	0.0745	0.9836	0.9057	0.072
Mof_N 	N 	0.0524	0.993	0.9757	-0.069
Mof_C 	C 	0.958	0.0259	0.5298	-0.712
Mof_H 	H 	0.9585	0.0602	0.5418	0.107
Mof_C 	C 	0.9517	0.988	0.5276	0.379
Mof_H 	H 	0.9413	0.9552	0.5394	-0.072
Mof_H 	H 	0.9272	0.0123	0.5394	0.03
Mof_H 	H 	0.9113	0.6295	0.5292	0.033
Mof_H 	H 	0.8423	0.6677	0.4708	0.049
Mof_H 	H 	0.8431	0.5184	0.4712	0.015
Mof_H 	H 	0.7679	0.5478	0.5297	0.068
Mof_C 	C 	0.8689	0.5762	0.5506	-0.111
Mof_H 	H 	0.8642	0.545	0.5686	0.065
Mof_H 	H 	0.8941	0.5958	0.568	0.065
Mof_C 	C 	0.8197	0.6052	0.5492	-0.002
Mof_H 	H 	0.8249	0.6377	0.5648	0.026
Mof_H 	H 	0.795	0.5872	0.5688	0.029
Mof_H 	H 	0.9275	0.01	0.5418	0.102
Mof_O 	O 	0.01169	0.43508	0.55125	-0.422
Mof_O 	O 	0.93714	0.47451	0.55119	-0.417
Mof_O 	O 	0.97612	0.07023	0.63985	-0.41
Mof_O 	O 	0.9731	0.06813	0.72306	-0.409
Mof_N 	N 	0.88727	0.28785	0.69113	-0.21
Mof_C 	C 	0.9663	0.44054	0.56452	0.396
Mof_C 	C 	0.94533	0.40149	0.60023	-0.178
Mof_C 	C 	0.9772	0.36537	0.62103	0.149
Mof_H 	H 	0.0114	0.3657	0.614	-0.017
Mof_C 	C 	0.95737	0.32931	0.65196	-0.239
Mof_H 	H 	0.9789	0.3057	0.6662	0.119
Mof_C 	C 	0.90685	0.32679	0.66271	0.201
Mof_C 	C 	0.87538	0.36334	0.64235	-0.225
Mof_H 	H 	0.8412	0.3631	0.6498	0.111
Mof_C 	C 	0.8948	0.40019	0.61098	0.125
Mof_H 	H 	0.8735	0.4241	0.5972	-0.001
Mof_C 	C 	0.90838	0.23888	0.68825	0.19
Mof_C 	C 	0.91958	0.2172	0.64321	-0.228
Mof_H 	H 	0.9142	0.2351	0.6139	0.113
Mof_C 	C 	0.93894	0.16886	0.64097	0.128
Mof_H 	H 	0.9467	0.1549	0.6101	-0.002
Mof_C 	C 	0.94677	0.1417	0.68301	-0.174
Mof_C 	C 	0.96712	0.08892	0.68161	0.39
Mof_C 	C 	0.93531	0.16327	0.72883	0.116
Mof_H 	H 	0.9403	0.145	0.758	0.008
Mof_C 	C 	0.91652	0.21188	0.7316	-0.217
Mof_H 	H 	0.9094	0.2262	0.7625	0.11
Mof_C 	C 	0.84289	0.29432	0.72131	0.234
Mof_C 	C 	0.8063	0.25813	0.7212	-0.278
Mof_H 	H 	0.8103	0.2296	0.7016	0.131
Mof_C 	C 	0.9557	0.0104	0.8371	0.029
Mof_H 	H 	0.9264	0.0176	0.8195	0.027
Mof_C 	C 	0.9552	0.01	0.8885	-0.065
Mof_H 	H 	0.9255	0.0164	0.9057	0.071
Mof_N 	N 	0.9476	0.007	0.9757	-0.071
Mof_C 	C 	0.042	0.9741	0.5298	0.688
Mof_H 	H 	0.0415	0.9398	0.5418	-0.072
Mof_C 	C 	0.0483	0.012	0.5276	-0.424
Mof_H 	H 	0.0587	0.0448	0.5394	0.11
Mof_H 	H 	0.0728	0.9877	0.5394	0.006
Mof_H 	H 	0.0887	0.3705	0.5292	0.032
Mof_H 	H 	0.1577	0.3323	0.4708	0.048
Mof_H 	H 	0.1569	0.4816	0.4712	0.015
Mof_H 	H 	0.2321	0.4522	0.5297	0.068
Mof_C 	C 	0.1311	0.4238	0.5506	-0.111
Mof_H 	H 	0.1358	0.455	0.5686	0.064
Mof_H 	H 	0.1059	0.4042	0.568	0.064
Mof_C 	C 	0.1803	0.3948	0.5492	-0.002
Mof_H 	H 	0.1751	0.3623	0.5648	0.025
Mof_H 	H 	0.205	0.4128	0.5688	0.028
Mof_H 	H 	0.0725	0.99	0.5418	-0.066
Mof_O 	O 	0.93508	0.51169	0.94875	-0.405
Mof_O 	O 	0.97451	0.43714	0.94881	-0.403
Mof_O 	O 	0.57023	0.47612	0.86015	-0.414
Mof_O 	O 	0.56813	0.4731	0.77694	-0.413
Mof_N 	N 	0.78785	0.38727	0.80887	-0.208
Mof_C 	C 	0.94054	0.4663	0.93548	0.377
Mof_C 	C 	0.90149	0.44533	0.89977	-0.156
Mof_C 	C 	0.86537	0.4772	0.87897	0.112
Mof_H 	H 	0.8657	0.5114	0.886	0.003
Mof_C 	C 	0.82931	0.45737	0.84804	-0.216
Mof_H 	H 	0.8057	0.4789	0.8338	0.109
Mof_C 	C 	0.82679	0.40685	0.83729	0.189
Mof_C 	C 	0.86334	0.37538	0.85765	-0.21
Mof_H 	H 	0.8631	0.3412	0.8502	0.108
Mof_C 	C 	0.90019	0.3948	0.88902	0.109
Mof_H 	H 	0.9241	0.3735	0.9028	0.008
Mof_C 	C 	0.73888	0.40838	0.81175	0.19
Mof_C 	C 	0.7172	0.41958	0.85679	-0.227
Mof_H 	H 	0.7351	0.4142	0.8861	0.115
Mof_C 	C 	0.66886	0.43894	0.85903	0.127
Mof_H 	H 	0.6549	0.4467	0.8899	-0
Mof_C 	C 	0.6417	0.44677	0.81699	-0.175
Mof_C 	C 	0.58892	0.46712	0.81839	0.392
Mof_C 	C 	0.66327	0.43531	0.77117	0.116
Mof_H 	H 	0.645	0.4403	0.742	0.006
Mof_C 	C 	0.71188	0.41652	0.7684	-0.217
Mof_H 	H 	0.7262	0.4094	0.7375	0.109
Mof_C 	C 	0.79432	0.34289	0.77869	0.234
Mof_C 	C 	0.75813	0.3063	0.7788	-0.278
Mof_H 	H 	0.7296	0.3103	0.7984	0.131
Mof_C 	C 	0.5104	0.4557	0.6629	0.029
Mof_H 	H 	0.5176	0.4264	0.6805	0.028
Mof_C 	C 	0.51	0.4552	0.6115	-0.079
Mof_H 	H 	0.5164	0.4255	0.5943	0.075
Mof_N 	N 	0.507	0.4476	0.5243	-0.08
Mof_C 	C 	0.4741	0.542	0.9702	-0.006
Mof_H 	H 	0.4398	0.5415	0.9582	0.018
Mof_C 	C 	0.512	0.5483	0.9724	-0.021
Mof_H 	H 	0.5448	0.5587	0.9606	0.019
Mof_H 	H 	0.4877	0.5728	0.9606	0.018
Mof_H 	H 	0.8705	0.5887	0.9708	0.046
Mof_H 	H 	0.8323	0.6577	0.0292	0.053
Mof_H 	H 	0.9816	0.6569	0.0288	0.023
Mof_H 	H 	0.9522	0.7321	0.9703	0.084
Mof_C 	C 	0.9238	0.6311	0.9494	-0.096
Mof_H 	H 	0.955	0.6358	0.9314	0.062
Mof_H 	H 	0.9042	0.6059	0.932	0.062
Mof_C 	C 	0.8948	0.6803	0.9508	0.015
Mof_H 	H 	0.8623	0.6751	0.9352	0.021
Mof_H 	H 	0.9128	0.705	0.9312	0.026
Mof_H 	H 	0.49	0.5725	0.9582	0.018
Mof_O 	O 	0.06492	0.48831	0.94875	-0.408
Mof_O 	O 	0.02549	0.56286	0.94881	-0.413
Mof_O 	O 	0.42977	0.52388	0.86015	-0.414
Mof_O 	O 	0.43187	0.5269	0.77694	-0.413
Mof_N 	N 	0.21215	0.61273	0.80887	-0.208
Mof_C 	C 	0.05946	0.5337	0.93548	0.378
Mof_C 	C 	0.09851	0.55467	0.89977	-0.16
Mof_C 	C 	0.13463	0.5228	0.87897	0.113
Mof_H 	H 	0.1343	0.4886	0.886	0.002
Mof_C 	C 	0.17069	0.54263	0.84804	-0.218
Mof_H 	H 	0.1943	0.5211	0.8338	0.11
Mof_C 	C 	0.17321	0.59315	0.83729	0.19
Mof_C 	C 	0.13666	0.62462	0.85765	-0.212
Mof_H 	H 	0.1369	0.6588	0.8502	0.107
Mof_C 	C 	0.09981	0.6052	0.88902	0.111
Mof_H 	H 	0.0759	0.6265	0.9028	0.004
Mof_C 	C 	0.26112	0.59162	0.81175	0.189
Mof_C 	C 	0.2828	0.58042	0.85679	-0.227
Mof_H 	H 	0.2649	0.5858	0.8861	0.114
Mof_C 	C 	0.33114	0.56106	0.85903	0.127
Mof_H 	H 	0.3451	0.5533	0.8899	-0
Mof_C 	C 	0.3583	0.55323	0.81699	-0.175
Mof_C 	C 	0.41108	0.53288	0.81839	0.392
Mof_C 	C 	0.33673	0.56469	0.77117	0.116
Mof_H 	H 	0.355	0.5597	0.742	0.006
Mof_C 	C 	0.28812	0.58348	0.7684	-0.217
Mof_H 	H 	0.2738	0.5906	0.7375	0.109
Mof_C 	C 	0.20568	0.65711	0.77869	0.233
Mof_C 	C 	0.24187	0.6937	0.7788	-0.277
Mof_H 	H 	0.2704	0.6897	0.7984	0.131
Mof_C 	C 	0.4896	0.5443	0.6629	0.029
Mof_H 	H 	0.4824	0.5736	0.6805	0.028
Mof_C 	C 	0.49	0.5448	0.6115	-0.079
Mof_H 	H 	0.4836	0.5745	0.5943	0.075
Mof_N 	N 	0.493	0.5524	0.5243	-0.08
Mof_C 	C 	0.5259	0.458	0.9702	-0.006
Mof_H 	H 	0.5602	0.4585	0.9582	0.018
Mof_C 	C 	0.488	0.4517	0.9724	-0.021
Mof_H 	H 	0.4552	0.4413	0.9606	0.019
Mof_H 	H 	0.5123	0.4272	0.9606	0.018
Mof_H 	H 	0.1295	0.4113	0.9708	0.046
Mof_H 	H 	0.1677	0.3423	0.0292	0.053
Mof_H 	H 	0.0184	0.3431	0.0288	0.018
Mof_H 	H 	0.0478	0.2679	0.9703	0.081
Mof_C 	C 	0.0762	0.3689	0.9494	-0.094
Mof_H 	H 	0.045	0.3642	0.9314	0.058
Mof_H 	H 	0.0958	0.3941	0.932	0.06
Mof_C 	C 	0.1052	0.3197	0.9508	0.015
Mof_H 	H 	0.1377	0.3249	0.9352	0.021
Mof_H 	H 	0.0872	0.295	0.9312	0.024
Mof_H 	H 	0.51	0.4275	0.9582	0.018
Mof_O 	O 	0.51169	0.06492	0.94875	-0.408
Mof_O 	O 	0.43714	0.02549	0.94881	-0.413
Mof_O 	O 	0.47612	0.42977	0.86015	-0.414
Mof_O 	O 	0.4731	0.43187	0.77694	-0.413
Mof_N 	N 	0.38727	0.21215	0.80887	-0.208
Mof_C 	C 	0.4663	0.05946	0.93548	0.378
Mof_C 	C 	0.44533	0.09851	0.89977	-0.16
Mof_C 	C 	0.4772	0.13463	0.87897	0.114
Mof_H 	H 	0.5114	0.1343	0.886	0.002
Mof_C 	C 	0.45737	0.17069	0.84804	-0.218
Mof_H 	H 	0.4789	0.1943	0.8338	0.11
Mof_C 	C 	0.40685	0.17321	0.83729	0.19
Mof_C 	C 	0.37538	0.13666	0.85765	-0.213
Mof_H 	H 	0.3412	0.1369	0.8502	0.107
Mof_C 	C 	0.3948	0.09981	0.88902	0.111
Mof_H 	H 	0.3735	0.0759	0.9028	0.004
Mof_C 	C 	0.40838	0.26112	0.81175	0.189
Mof_C 	C 	0.41958	0.2828	0.85679	-0.227
Mof_H 	H 	0.4142	0.2649	0.8861	0.114
Mof_C 	C 	0.43894	0.33114	0.85903	0.127
Mof_H 	H 	0.4467	0.3451	0.8899	-0
Mof_C 	C 	0.44677	0.3583	0.81699	-0.175
Mof_C 	C 	0.46712	0.41108	0.81839	0.391
Mof_C 	C 	0.43531	0.33673	0.77117	0.116
Mof_H 	H 	0.4403	0.355	0.742	0.006
Mof_C 	C 	0.41652	0.28812	0.7684	-0.217
Mof_H 	H 	0.4094	0.2738	0.7375	0.109
Mof_C 	C 	0.34289	0.20568	0.77869	0.233
Mof_C 	C 	0.3063	0.24187	0.7788	-0.277
Mof_H 	H 	0.3103	0.2704	0.7984	0.131
Mof_C 	C 	0.4557	0.4896	0.6629	0.029
Mof_H 	H 	0.4264	0.4824	0.6805	0.028
Mof_C 	C 	0.4552	0.49	0.6115	-0.079
Mof_H 	H 	0.4255	0.4836	0.5943	0.075
Mof_N 	N 	0.4476	0.493	0.5243	-0.08
Mof_C 	C 	0.542	0.5259	0.9702	-0.006
Mof_H 	H 	0.5415	0.5602	0.9582	0.018
Mof_C 	C 	0.5483	0.488	0.9724	-0.021
Mof_H 	H 	0.5587	0.4552	0.9606	0.019
Mof_H 	H 	0.5728	0.5123	0.9606	0.018
Mof_H 	H 	0.5887	0.1295	0.9708	0.046
Mof_H 	H 	0.6577	0.1677	0.0292	0.053
Mof_H 	H 	0.6569	0.0184	0.0288	0.018
Mof_H 	H 	0.7321	0.0478	0.9703	0.081
Mof_C 	C 	0.6311	0.0762	0.9494	-0.094
Mof_H 	H 	0.6358	0.045	0.9314	0.058
Mof_H 	H 	0.6059	0.0958	0.932	0.06
Mof_C 	C 	0.6803	0.1052	0.9508	0.014
Mof_H 	H 	0.6751	0.1377	0.9352	0.021
Mof_H 	H 	0.705	0.0872	0.9312	0.025
Mof_H 	H 	0.5725	0.51	0.9582	0.018
Mof_O 	O 	0.48831	0.93508	0.94875	-0.405
Mof_O 	O 	0.56286	0.97451	0.94881	-0.403
Mof_O 	O 	0.52388	0.57023	0.86015	-0.414
Mof_O 	O 	0.5269	0.56813	0.77694	-0.413
Mof_N 	N 	0.61273	0.78785	0.80887	-0.208
Mof_C 	C 	0.5337	0.94054	0.93548	0.377
Mof_C 	C 	0.55467	0.90149	0.89977	-0.156
Mof_C 	C 	0.5228	0.86537	0.87897	0.112
Mof_H 	H 	0.4886	0.8657	0.886	0.003
Mof_C 	C 	0.54263	0.82931	0.84804	-0.216
Mof_H 	H 	0.5211	0.8057	0.8338	0.109
Mof_C 	C 	0.59315	0.82679	0.83729	0.189
Mof_C 	C 	0.62462	0.86334	0.85765	-0.21
Mof_H 	H 	0.6588	0.8631	0.8502	0.108
Mof_C 	C 	0.6052	0.90019	0.88902	0.109
Mof_H 	H 	0.6265	0.9241	0.9028	0.008
Mof_C 	C 	0.59162	0.73888	0.81175	0.19
Mof_C 	C 	0.58042	0.7172	0.85679	-0.227
Mof_H 	H 	0.5858	0.7351	0.8861	0.115
Mof_C 	C 	0.56106	0.66886	0.85903	0.127
Mof_H 	H 	0.5533	0.6549	0.8899	-0
Mof_C 	C 	0.55323	0.6417	0.81699	-0.175
Mof_C 	C 	0.53288	0.58892	0.81839	0.392
Mof_C 	C 	0.56469	0.66327	0.77117	0.116
Mof_H 	H 	0.5597	0.645	0.742	0.006
Mof_C 	C 	0.58348	0.71188	0.7684	-0.217
Mof_H 	H 	0.5906	0.7262	0.7375	0.109
Mof_C 	C 	0.65711	0.79432	0.77869	0.234
Mof_C 	C 	0.6937	0.75813	0.7788	-0.278
Mof_H 	H 	0.6897	0.7296	0.7984	0.132
Mof_C 	C 	0.5443	0.5104	0.6629	0.029
Mof_H 	H 	0.5736	0.5176	0.6805	0.028
Mof_C 	C 	0.5448	0.51	0.6115	-0.079
Mof_H 	H 	0.5745	0.5164	0.5943	0.075
Mof_N 	N 	0.5524	0.507	0.5243	-0.08
Mof_C 	C 	0.458	0.4741	0.9702	-0.006
Mof_H 	H 	0.4585	0.4398	0.9582	0.018
Mof_C 	C 	0.4517	0.512	0.9724	-0.021
Mof_H 	H 	0.4413	0.5448	0.9606	0.019
Mof_H 	H 	0.4272	0.4877	0.9606	0.018
Mof_H 	H 	0.4113	0.8705	0.9708	0.046
Mof_H 	H 	0.3423	0.8323	0.0292	0.053
Mof_H 	H 	0.3431	0.9816	0.0288	0.023
Mof_H 	H 	0.2679	0.9522	0.9703	0.083
Mof_C 	C 	0.3689	0.9238	0.9494	-0.096
Mof_H 	H 	0.3642	0.955	0.9314	0.062
Mof_H 	H 	0.3941	0.9042	0.932	0.062
Mof_C 	C 	0.3197	0.8948	0.9508	0.015
Mof_H 	H 	0.3249	0.8623	0.9352	0.021
Mof_H 	H 	0.295	0.9128	0.9312	0.026
Mof_H 	H 	0.4275	0.49	0.9582	0.018
Mof_Cu	Cu	0.4764	0.95629	0.5	0.917
Mof_N 	N 	0.4345	0.8862	0.5	-0.145
Mof_C 	C 	0.3804	0.8922	0.5	-0.015
Mof_C 	C 	0.3538	0.8439	0.5	-0.075
Mof_C 	C 	0.4596	0.841	0.5	0.046
Mof_C 	C 	0.4421	0.7861	0.5	-0.128
Mof_N 	N 	0.387	0.7999	0.5	-0.086
Mof_Cu	Cu	0.5236	0.04371	0.5	0.915
Mof_N 	N 	0.5655	0.1138	0.5	-0.145
Mof_C 	C 	0.6196	0.1078	0.5	-0.015
Mof_C 	C 	0.6462	0.1561	0.5	-0.075
Mof_C 	C 	0.5404	0.159	0.5	0.046
Mof_C 	C 	0.5579	0.2139	0.5	-0.129
Mof_N 	N 	0.613	0.2001	0.5	-0.086
Mof_Cu	Cu	0.04371	0.4764	0.5	0.915
Mof_N 	N 	0.1138	0.4345	0.5	-0.145
Mof_C 	C 	0.1078	0.3804	0.5	-0.014
Mof_C 	C 	0.1561	0.3538	0.5	-0.075
Mof_C 	C 	0.159	0.4596	0.5	0.046
Mof_C 	C 	0.2139	0.4421	0.5	-0.129
Mof_N 	N 	0.2001	0.387	0.5	-0.086
Mof_Cu	Cu	0.95629	0.5236	0.5	0.917
Mof_N 	N 	0.8862	0.5655	0.5	-0.145
Mof_C 	C 	0.8922	0.6196	0.5	-0.015
Mof_C 	C 	0.8439	0.6462	0.5	-0.075
Mof_C 	C 	0.841	0.5404	0.5	0.046
Mof_C 	C 	0.7861	0.5579	0.5	-0.128
Mof_N 	N 	0.7999	0.613	0.5	-0.086
Mof_Cu	Cu	0.0236	0.45629	-0	0.907
Mof_N 	N 	0.0655	0.3862	-0	-0.148
Mof_C 	C 	0.1196	0.3922	-0	-0.036
Mof_C 	C 	0.1462	0.3439	-0	-0.097
Mof_C 	C 	0.0404	0.341	-0	0.024
Mof_C 	C 	0.0579	0.2861	-0	-0.149
Mof_N 	N 	0.113	0.2999	-0	-0.09
Mof_Cu	Cu	0.9764	0.54371	-0	0.914
Mof_N 	N 	0.9345	0.6138	-0	-0.146
Mof_C 	C 	0.8804	0.6078	-0	-0.036
Mof_C 	C 	0.8538	0.6561	-0	-0.098
Mof_C 	C 	0.9596	0.659	-0	0.02
Mof_C 	C 	0.9421	0.7139	-0	-0.149
Mof_N 	N 	0.887	0.7001	-0	-0.089
Mof_Cu	Cu	0.45629	0.9764	-0	0.914
Mof_N 	N 	0.3862	0.9345	-0	-0.146
Mof_C 	C 	0.3922	0.8804	-0	-0.036
Mof_C 	C 	0.3439	0.8538	-0	-0.098
Mof_C 	C 	0.341	0.9596	-0	0.02
Mof_C 	C 	0.2861	0.9421	-0	-0.149
Mof_N 	N 	0.2999	0.887	-0	-0.089
Mof_Cu	Cu	0.54371	0.0236	-0	0.907
Mof_N 	N 	0.6138	0.0655	-0	-0.148
Mof_C 	C 	0.6078	0.1196	-0	-0.036
Mof_C 	C 	0.6561	0.1462	-0	-0.098
Mof_C 	C 	0.659	0.0404	-0	0.024
Mof_C 	C 	0.7139	0.0579	-0	-0.149
Mof_N 	N 	0.7001	0.113	-0	-0.089
Mof_Cu	Cu	-1.2655e-33	0	0.36901	0.903
Mof_Cu	Cu	1.0193e-33	0	0.26983	0.911
Mof_N 	N 	7.02352e-33	5.31892e-33	0.45124	-0.157
Mof_N 	N 	7.11696e-34	1.32973e-33	0.1884	-0.192
Mof_C 	C 	-3.43771e-34	-6.64866e-34	0.085	0.047
Mof_C 	C 	1.29571e-34	0	0.0343	0.126
Mof_Cu	Cu	0.5	0.5	0.13099	0.91
Mof_Cu	Cu	0.5	0.5	0.23017	0.918
Mof_N 	N 	0.5	0.5	0.04876	-0.14
Mof_N 	N 	0.5	0.5	0.3116	-0.182
Mof_C 	C 	0.5	0.5	0.415	0.077
Mof_C 	C 	0.5	0.5	0.4657	0.136
Mof_Cu	Cu	2.38362e-33	0	0.63099	0.902
Mof_Cu	Cu	-7.87957e-33	-5.31892e-33	0.73017	0.911
Mof_N 	N 	2.07298e-33	0	0.54876	-0.157
Mof_N 	N 	3.06588e-33	0	0.8116	-0.192
Mof_C 	C 	3.45649e-33	0	0.915	0.045
Mof_C 	C 	3.64801e-33	0	0.9657	0.13
Mof_Cu	Cu	0.5	0.5	0.86901	0.91
Mof_Cu	Cu	0.5	0.5	0.76983	0.918
Mof_N 	N 	0.5	0.5	0.95124	-0.149
Mof_N 	N 	0.5	0.5	0.6884	-0.182
Mof_C 	C 	0.5	0.5	0.585	0.077
Mof_C 	C 	0.5	0.5	0.5343	0.136
Mof_C 	C 	0.33672	0.16328	0.25	-0.302
Mof_H 	H 	0.3614	0.1386	0.25	0.141
Mof_C 	C 	0.2635	0.2365	0.25	0.184
Mof_H 	H 	0.2388	0.2612	0.25	-0.038
Mof_C 	C 	0.66328	0.83672	0.25	-0.304
Mof_H 	H 	0.6386	0.8614	0.25	0.143
Mof_C 	C 	0.7365	0.7635	0.25	0.185
Mof_H 	H 	0.7612	0.7388	0.25	-0.037
Mof_C 	C 	0.83672	0.33672	0.25	-0.304
Mof_H 	H 	0.8614	0.3614	0.25	0.143
Mof_C 	C 	0.7635	0.2635	0.25	0.185
Mof_H 	H 	0.7388	0.2388	0.25	-0.038
Mof_C 	C 	0.16328	0.66328	0.25	-0.302
Mof_H 	H 	0.1386	0.6386	0.25	0.141
Mof_C 	C 	0.2365	0.7365	0.25	0.184
Mof_H 	H 	0.2612	0.7612	0.25	-0.037
Mof_C 	C 	0.66328	0.83672	0.75	-0.304
Mof_H 	H 	0.6386	0.8614	0.75	0.143
Mof_C 	C 	0.7365	0.7635	0.75	0.186
Mof_H 	H 	0.7612	0.7388	0.75	-0.036
Mof_C 	C 	0.33672	0.16328	0.75	-0.302
Mof_H 	H 	0.3614	0.1386	0.75	0.141
Mof_C 	C 	0.2635	0.2365	0.75	0.185
Mof_H 	H 	0.2388	0.2612	0.75	-0.037
Mof_C 	C 	0.16328	0.66328	0.75	-0.302
Mof_H 	H 	0.1386	0.6386	0.75	0.141
Mof_C 	C 	0.2365	0.7365	0.75	0.185
Mof_H 	H 	0.2612	0.7612	0.75	-0.036
Mof_C 	C 	0.83672	0.33672	0.75	-0.304
Mof_H 	H 	0.8614	0.3614	0.75	0.143
Mof_C 	C 	0.7635	0.2635	0.75	0.186
Mof_H 	H 	0.7388	0.2388	0.75	-0.037
_end
