data_functionalizedCrystal
_audit_creation_method	'EQeq! by Chris Wilmer'
_symmetry_space_group_name_H-M	'P1'
_symmetry_Int_Tables_number	1
_symmetry_cell_setting	triclinic
loop_
_symmetry_equiv_pos_as_xyz
  x,y,z
_cell_length_a	17.2
_cell_length_b	17.2
_cell_length_c	17.2
_cell_angle_alpha	90
_cell_angle_beta	90
_cell_angle_gamma	90
loop_
_atom_site_label
_atom_site_type_symbol
_atom_site_fract_x
_atom_site_fract_y
_atom_site_fract_z
_atom_site_charge
Mof_C 	C 	0.5281	0.1657	0.4379	0.632
Mof_C 	C 	0.534	0.0841	0.437	-1.139
Mof_N 	N 	0.567	0.049	0.368	-1.635
Mof_C 	C 	0.5443	0	0.316	0.394
Mof_C 	C 	0.6	0.971	0.254	-0.053
Mof_C 	C 	0.679	0.963	0.271	0.135
Mof_H 	H 	0.5565	0.1933	0.3982	-0.148
Mof_H 	H 	0.558	0.0587	0.3971	1.783
Mof_H 	H 	0.5206	0.9581	0.1684	0.04
Mof_H 	H 	0.6064	0.9141	0.0741	0.076
Mof_H 	H 	0.7375	0.9009	0.1031	-0.003
Mof_H 	H 	0.7828	0.9317	0.2263	0.096
Mof_H 	H 	0.697	0.9757	0.3206	-0.002
Mof_C 	C 	0.573	0.953	0.18	0.043
Mof_C 	C 	0.625	0.926	0.124	-0.134
Mof_C 	C 	0.703	0.919	0.141	0.101
Mof_C 	C 	0.73	0.937	0.215	-0.188
Mof_C 	C 	0.4719	0.8343	0.4379	0.522
Mof_C 	C 	0.466	0.9159	0.437	-0.939
Mof_N 	N 	0.433	0.951	0.368	-1.338
Mof_C 	C 	0.4557	0	0.316	0.307
Mof_C 	C 	0.4	0.029	0.254	-0.09
Mof_C 	C 	0.321	0.037	0.271	0.062
Mof_H 	H 	0.4435	0.8067	0.3982	-0.11
Mof_H 	H 	0.442	0.9413	0.3971	1.502
Mof_H 	H 	0.4794	0.0419	0.1684	-0.007
Mof_H 	H 	0.3936	0.0859	0.0741	0.061
Mof_H 	H 	0.2625	0.0991	0.1031	-0.008
Mof_H 	H 	0.2172	0.0683	0.2263	0.072
Mof_H 	H 	0.303	0.0243	0.3206	0.018
Mof_C 	C 	0.427	0.047	0.18	0.029
Mof_C 	C 	0.375	0.074	0.124	-0.13
Mof_C 	C 	0.297	0.081	0.141	0.055
Mof_C 	C 	0.27	0.063	0.215	-0.146
Mof_C 	C 	0.4719	0.1657	0.5621	0.63
Mof_C 	C 	0.466	0.0841	0.563	-1.138
Mof_N 	N 	0.433	0.049	0.632	-1.636
Mof_C 	C 	0.4557	-4.96095e-33	0.684	0.399
Mof_C 	C 	0.4	0.971	0.746	-0.055
Mof_C 	C 	0.321	0.963	0.729	0.138
Mof_H 	H 	0.4435	0.1933	0.6018	-0.145
Mof_H 	H 	0.442	0.0587	0.6029	1.786
Mof_H 	H 	0.4794	0.9581	0.8316	0.047
Mof_H 	H 	0.3936	0.9141	0.9259	0.091
Mof_H 	H 	0.2625	0.9009	0.8969	-0.009
Mof_H 	H 	0.2172	0.9317	0.7737	0.098
Mof_H 	H 	0.303	0.9757	0.6794	-0.005
Mof_C 	C 	0.427	0.953	0.82	0.062
Mof_C 	C 	0.375	0.926	0.876	-0.148
Mof_C 	C 	0.297	0.919	0.859	0.116
Mof_C 	C 	0.27	0.937	0.785	-0.188
Mof_C 	C 	0.5281	0.8343	0.5621	0.521
Mof_C 	C 	0.534	0.9159	0.563	-0.932
Mof_N 	N 	0.567	0.951	0.632	-1.326
Mof_C 	C 	0.5443	-4.96095e-33	0.684	0.303
Mof_C 	C 	0.6	0.029	0.746	-0.082
Mof_C 	C 	0.679	0.037	0.729	0.049
Mof_H 	H 	0.5565	0.8067	0.6018	-0.106
Mof_H 	H 	0.558	0.9413	0.6029	1.492
Mof_H 	H 	0.5206	0.0419	0.8316	-0.001
Mof_H 	H 	0.6064	0.0859	0.9259	0.073
Mof_H 	H 	0.7375	0.0991	0.8969	-0.007
Mof_H 	H 	0.7828	0.0683	0.7737	0.071
Mof_H 	H 	0.697	0.0243	0.6794	0.026
Mof_C 	C 	0.573	0.047	0.82	0.04
Mof_C 	C 	0.625	0.074	0.876	-0.136
Mof_C 	C 	0.703	0.081	0.859	0.065
Mof_C 	C 	0.73	0.063	0.785	-0.126
Mof_C 	C 	0.4379	0.5281	0.1657	0.633
Mof_C 	C 	0.437	0.534	0.0841	-1.138
Mof_N 	N 	0.368	0.567	0.049	-1.634
Mof_C 	C 	0.316	0.5443	-0	0.395
Mof_C 	C 	0.254	0.6	0.971	-0.052
Mof_C 	C 	0.271	0.679	0.963	0.136
Mof_H 	H 	0.3982	0.5565	0.1933	-0.147
Mof_H 	H 	0.3971	0.558	0.0587	1.784
Mof_H 	H 	0.1684	0.5206	0.9581	0.041
Mof_H 	H 	0.0741	0.6064	0.9141	0.077
Mof_H 	H 	0.1031	0.7375	0.9009	-0.002
Mof_H 	H 	0.2263	0.7828	0.9317	0.097
Mof_H 	H 	0.3206	0.697	0.9757	-0.001
Mof_C 	C 	0.18	0.573	0.953	0.044
Mof_C 	C 	0.124	0.625	0.926	-0.133
Mof_C 	C 	0.141	0.703	0.919	0.102
Mof_C 	C 	0.215	0.73	0.937	-0.187
Mof_C 	C 	0.4379	0.4719	0.8343	0.523
Mof_C 	C 	0.437	0.466	0.9159	-0.938
Mof_N 	N 	0.368	0.433	0.951	-1.337
Mof_C 	C 	0.316	0.4557	-0	0.307
Mof_C 	C 	0.254	0.4	0.029	-0.09
Mof_C 	C 	0.271	0.321	0.037	0.062
Mof_H 	H 	0.3982	0.4435	0.8067	-0.11
Mof_H 	H 	0.3971	0.442	0.9413	1.502
Mof_H 	H 	0.1684	0.4794	0.0419	-0.007
Mof_H 	H 	0.0741	0.3936	0.0859	0.061
Mof_H 	H 	0.1031	0.2625	0.0991	-0.008
Mof_H 	H 	0.2263	0.2172	0.0683	0.072
Mof_H 	H 	0.3206	0.303	0.0243	0.018
Mof_C 	C 	0.18	0.427	0.047	0.029
Mof_C 	C 	0.124	0.375	0.074	-0.13
Mof_C 	C 	0.141	0.297	0.081	0.055
Mof_C 	C 	0.215	0.27	0.063	-0.146
Mof_C 	C 	0.5621	0.4719	0.1657	0.63
Mof_C 	C 	0.563	0.466	0.0841	-1.138
Mof_N 	N 	0.632	0.433	0.049	-1.636
Mof_C 	C 	0.684	0.4557	-0	0.399
Mof_C 	C 	0.746	0.4	0.971	-0.055
Mof_C 	C 	0.729	0.321	0.963	0.138
Mof_H 	H 	0.6018	0.4435	0.1933	-0.145
Mof_H 	H 	0.6029	0.442	0.0587	1.786
Mof_H 	H 	0.8316	0.4794	0.9581	0.047
Mof_H 	H 	0.9259	0.3936	0.9141	0.091
Mof_H 	H 	0.8969	0.2625	0.9009	-0.009
Mof_H 	H 	0.7737	0.2172	0.9317	0.098
Mof_H 	H 	0.6794	0.303	0.9757	-0.005
Mof_C 	C 	0.82	0.427	0.953	0.062
Mof_C 	C 	0.876	0.375	0.926	-0.148
Mof_C 	C 	0.859	0.297	0.919	0.116
Mof_C 	C 	0.785	0.27	0.937	-0.188
Mof_C 	C 	0.5621	0.5281	0.8343	0.521
Mof_C 	C 	0.563	0.534	0.9159	-0.932
Mof_N 	N 	0.632	0.567	0.951	-1.326
Mof_C 	C 	0.684	0.5443	-0	0.303
Mof_C 	C 	0.746	0.6	0.029	-0.082
Mof_C 	C 	0.729	0.679	0.037	0.049
Mof_H 	H 	0.6018	0.5565	0.8067	-0.106
Mof_H 	H 	0.6029	0.558	0.9413	1.492
Mof_H 	H 	0.8316	0.5206	0.0419	-0.001
Mof_H 	H 	0.9259	0.6064	0.0859	0.073
Mof_H 	H 	0.8969	0.7375	0.0991	-0.007
Mof_H 	H 	0.7737	0.7828	0.0683	0.071
Mof_H 	H 	0.6794	0.697	0.0243	0.026
Mof_C 	C 	0.82	0.573	0.047	0.04
Mof_C 	C 	0.876	0.625	0.074	-0.136
Mof_C 	C 	0.859	0.703	0.081	0.065
Mof_C 	C 	0.785	0.73	0.063	-0.126
Mof_C 	C 	0.1657	0.4379	0.5281	0.633
Mof_C 	C 	0.0841	0.437	0.534	-1.138
Mof_N 	N 	0.049	0.368	0.567	-1.634
Mof_C 	C 	7.00175e-33	0.316	0.5443	0.395
Mof_C 	C 	0.971	0.254	0.6	-0.052
Mof_C 	C 	0.963	0.271	0.679	0.136
Mof_H 	H 	0.1933	0.3982	0.5565	-0.147
Mof_H 	H 	0.0587	0.3971	0.558	1.784
Mof_H 	H 	0.9581	0.1684	0.5206	0.041
Mof_H 	H 	0.9141	0.0741	0.6064	0.077
Mof_H 	H 	0.9009	0.1031	0.7375	-0.002
Mof_H 	H 	0.9317	0.2263	0.7828	0.097
Mof_H 	H 	0.9757	0.3206	0.697	-0.001
Mof_C 	C 	0.953	0.18	0.573	0.044
Mof_C 	C 	0.926	0.124	0.625	-0.133
Mof_C 	C 	0.919	0.141	0.703	0.102
Mof_C 	C 	0.937	0.215	0.73	-0.187
Mof_C 	C 	0.8343	0.4379	0.4719	0.523
Mof_C 	C 	0.9159	0.437	0.466	-0.938
Mof_N 	N 	0.951	0.368	0.433	-1.337
Mof_C 	C 	-3.25235e-33	0.316	0.4557	0.307
Mof_C 	C 	0.029	0.254	0.4	-0.09
Mof_C 	C 	0.037	0.271	0.321	0.062
Mof_H 	H 	0.8067	0.3982	0.4435	-0.11
Mof_H 	H 	0.9413	0.3971	0.442	1.502
Mof_H 	H 	0.0419	0.1684	0.4794	-0.007
Mof_H 	H 	0.0859	0.0741	0.3936	0.061
Mof_H 	H 	0.0991	0.1031	0.2625	-0.008
Mof_H 	H 	0.0683	0.2263	0.2172	0.072
Mof_H 	H 	0.0243	0.3206	0.303	0.018
Mof_C 	C 	0.047	0.18	0.427	0.029
Mof_C 	C 	0.074	0.124	0.375	-0.13
Mof_C 	C 	0.081	0.141	0.297	0.055
Mof_C 	C 	0.063	0.215	0.27	-0.146
Mof_C 	C 	0.1657	0.5621	0.4719	0.63
Mof_C 	C 	0.0841	0.563	0.466	-1.138
Mof_N 	N 	0.049	0.632	0.433	-1.636
Mof_C 	C 	-1.31743e-32	0.684	0.4557	0.399
Mof_C 	C 	0.971	0.746	0.4	-0.055
Mof_C 	C 	0.963	0.729	0.321	0.138
Mof_H 	H 	0.1933	0.6018	0.4435	-0.145
Mof_H 	H 	0.0587	0.6029	0.442	1.786
Mof_H 	H 	0.9581	0.8316	0.4794	0.047
Mof_H 	H 	0.9141	0.9259	0.3936	0.091
Mof_H 	H 	0.9009	0.8969	0.2625	-0.009
Mof_H 	H 	0.9317	0.7737	0.2172	0.098
Mof_H 	H 	0.9757	0.6794	0.303	-0.005
Mof_C 	C 	0.953	0.82	0.427	0.062
Mof_C 	C 	0.926	0.876	0.375	-0.148
Mof_C 	C 	0.919	0.859	0.297	0.116
Mof_C 	C 	0.937	0.785	0.27	-0.188
Mof_C 	C 	0.8343	0.5621	0.5281	0.521
Mof_C 	C 	0.9159	0.563	0.534	-0.932
Mof_N 	N 	0.951	0.632	0.567	-1.326
Mof_C 	C 	7.00175e-33	0.684	0.5443	0.303
Mof_C 	C 	0.029	0.746	0.6	-0.082
Mof_C 	C 	0.037	0.729	0.679	0.049
Mof_H 	H 	0.8067	0.6018	0.5565	-0.106
Mof_H 	H 	0.9413	0.6029	0.558	1.492
Mof_H 	H 	0.0419	0.8316	0.5206	-0.001
Mof_H 	H 	0.0859	0.9259	0.6064	0.073
Mof_H 	H 	0.0991	0.8969	0.7375	-0.007
Mof_H 	H 	0.0683	0.7737	0.7828	0.071
Mof_H 	H 	0.0243	0.6794	0.697	0.026
Mof_C 	C 	0.047	0.82	0.573	0.04
Mof_C 	C 	0.074	0.876	0.625	-0.136
Mof_C 	C 	0.081	0.859	0.703	0.065
Mof_C 	C 	0.063	0.785	0.73	-0.126
Mof_C 	C 	0.1657	0.5281	0.4379	0.633
Mof_C 	C 	0.0841	0.534	0.437	-1.138
Mof_N 	N 	0.049	0.567	0.368	-1.634
Mof_C 	C 	8.62624e-33	0.5443	0.316	0.395
Mof_C 	C 	0.971	0.6	0.254	-0.052
Mof_C 	C 	0.963	0.679	0.271	0.136
Mof_H 	H 	0.1933	0.5565	0.3982	-0.147
Mof_H 	H 	0.0587	0.558	0.3971	1.784
Mof_H 	H 	0.9581	0.5206	0.1684	0.041
Mof_H 	H 	0.9141	0.6064	0.0741	0.077
Mof_H 	H 	0.9009	0.7375	0.1031	-0.002
Mof_H 	H 	0.9317	0.7828	0.2263	0.097
Mof_H 	H 	0.9757	0.697	0.3206	-0.001
Mof_C 	C 	0.953	0.573	0.18	0.044
Mof_C 	C 	0.926	0.625	0.124	-0.133
Mof_C 	C 	0.919	0.703	0.141	0.102
Mof_C 	C 	0.937	0.73	0.215	-0.187
Mof_C 	C 	0.8343	0.4719	0.4379	0.523
Mof_C 	C 	0.9159	0.466	0.437	-0.938
Mof_N 	N 	0.951	0.433	0.368	-1.337
Mof_C 	C 	-1.29567e-33	0.4557	0.316	0.307
Mof_C 	C 	0.029	0.4	0.254	-0.09
Mof_C 	C 	0.037	0.321	0.271	0.062
Mof_H 	H 	0.8067	0.4435	0.3982	-0.11
Mof_H 	H 	0.9413	0.442	0.3971	1.502
Mof_H 	H 	0.0419	0.4794	0.1684	-0.007
Mof_H 	H 	0.0859	0.3936	0.0741	0.061
Mof_H 	H 	0.0991	0.2625	0.1031	-0.008
Mof_H 	H 	0.0683	0.2172	0.2263	0.072
Mof_H 	H 	0.0243	0.303	0.3206	0.018
Mof_C 	C 	0.047	0.427	0.18	0.029
Mof_C 	C 	0.074	0.375	0.124	-0.13
Mof_C 	C 	0.081	0.297	0.141	0.055
Mof_C 	C 	0.063	0.27	0.215	-0.146
Mof_C 	C 	0.1657	0.4719	0.5621	0.63
Mof_C 	C 	0.0841	0.466	0.563	-1.138
Mof_N 	N 	0.049	0.433	0.632	-1.636
Mof_C 	C 	-1.23183e-32	0.4557	0.684	0.399
Mof_C 	C 	0.971	0.4	0.746	-0.055
Mof_C 	C 	0.963	0.321	0.729	0.138
Mof_H 	H 	0.1933	0.4435	0.6018	-0.145
Mof_H 	H 	0.0587	0.442	0.6029	1.786
Mof_H 	H 	0.9581	0.4794	0.8316	0.047
Mof_H 	H 	0.9141	0.3936	0.9259	0.091
Mof_H 	H 	0.9009	0.2625	0.8969	-0.009
Mof_H 	H 	0.9317	0.2172	0.7737	0.098
Mof_H 	H 	0.9757	0.303	0.6794	-0.005
Mof_C 	C 	0.953	0.427	0.82	0.062
Mof_C 	C 	0.926	0.375	0.876	-0.148
Mof_C 	C 	0.919	0.297	0.859	0.116
Mof_C 	C 	0.937	0.27	0.785	-0.188
Mof_C 	C 	0.8343	0.5281	0.5621	0.521
Mof_C 	C 	0.9159	0.534	0.563	-0.932
Mof_N 	N 	0.951	0.567	0.632	-1.326
Mof_C 	C 	7.52554e-33	0.5443	0.684	0.303
Mof_C 	C 	0.029	0.6	0.746	-0.082
Mof_C 	C 	0.037	0.679	0.729	0.049
Mof_H 	H 	0.8067	0.5565	0.6018	-0.106
Mof_H 	H 	0.9413	0.558	0.6029	1.492
Mof_H 	H 	0.0419	0.5206	0.8316	-0.001
Mof_H 	H 	0.0859	0.6064	0.9259	0.073
Mof_H 	H 	0.0991	0.7375	0.8969	-0.007
Mof_H 	H 	0.0683	0.7828	0.7737	0.071
Mof_H 	H 	0.0243	0.697	0.6794	0.026
Mof_C 	C 	0.047	0.573	0.82	0.04
Mof_C 	C 	0.074	0.625	0.876	-0.136
Mof_C 	C 	0.081	0.703	0.859	0.065
Mof_C 	C 	0.063	0.73	0.785	-0.126
Mof_C 	C 	0.5281	0.4379	0.1657	0.633
Mof_C 	C 	0.534	0.437	0.0841	-1.138
Mof_N 	N 	0.567	0.368	0.049	-1.634
Mof_C 	C 	0.5443	0.316	-0	0.395
Mof_C 	C 	0.6	0.254	0.971	-0.052
Mof_C 	C 	0.679	0.271	0.963	0.136
Mof_H 	H 	0.5565	0.3982	0.1933	-0.147
Mof_H 	H 	0.558	0.3971	0.0587	1.784
Mof_H 	H 	0.5206	0.1684	0.9581	0.041
Mof_H 	H 	0.6064	0.0741	0.9141	0.077
Mof_H 	H 	0.7375	0.1031	0.9009	-0.002
Mof_H 	H 	0.7828	0.2263	0.9317	0.097
Mof_H 	H 	0.697	0.3206	0.9757	-0.001
Mof_C 	C 	0.573	0.18	0.953	0.044
Mof_C 	C 	0.625	0.124	0.926	-0.133
Mof_C 	C 	0.703	0.141	0.919	0.102
Mof_C 	C 	0.73	0.215	0.937	-0.187
Mof_C 	C 	0.4719	0.4379	0.8343	0.523
Mof_C 	C 	0.466	0.437	0.9159	-0.938
Mof_N 	N 	0.433	0.368	0.951	-1.337
Mof_C 	C 	0.4557	0.316	-0	0.307
Mof_C 	C 	0.4	0.254	0.029	-0.09
Mof_C 	C 	0.321	0.271	0.037	0.062
Mof_H 	H 	0.4435	0.3982	0.8067	-0.11
Mof_H 	H 	0.442	0.3971	0.9413	1.502
Mof_H 	H 	0.4794	0.1684	0.0419	-0.007
Mof_H 	H 	0.3936	0.0741	0.0859	0.061
Mof_H 	H 	0.2625	0.1031	0.0991	-0.008
Mof_H 	H 	0.2172	0.2263	0.0683	0.072
Mof_H 	H 	0.303	0.3206	0.0243	0.018
Mof_C 	C 	0.427	0.18	0.047	0.029
Mof_C 	C 	0.375	0.124	0.074	-0.13
Mof_C 	C 	0.297	0.141	0.081	0.055
Mof_C 	C 	0.27	0.215	0.063	-0.146
Mof_C 	C 	0.4719	0.5621	0.1657	0.63
Mof_C 	C 	0.466	0.563	0.0841	-1.138
Mof_N 	N 	0.433	0.632	0.049	-1.636
Mof_C 	C 	0.4557	0.684	-0	0.399
Mof_C 	C 	0.4	0.746	0.971	-0.055
Mof_C 	C 	0.321	0.729	0.963	0.138
Mof_H 	H 	0.4435	0.6018	0.1933	-0.145
Mof_H 	H 	0.442	0.6029	0.0587	1.786
Mof_H 	H 	0.4794	0.8316	0.9581	0.047
Mof_H 	H 	0.3936	0.9259	0.9141	0.091
Mof_H 	H 	0.2625	0.8969	0.9009	-0.009
Mof_H 	H 	0.2172	0.7737	0.9317	0.098
Mof_H 	H 	0.303	0.6794	0.9757	-0.005
Mof_C 	C 	0.427	0.82	0.953	0.062
Mof_C 	C 	0.375	0.876	0.926	-0.148
Mof_C 	C 	0.297	0.859	0.919	0.116
Mof_C 	C 	0.27	0.785	0.937	-0.188
Mof_C 	C 	0.5281	0.5621	0.8343	0.521
Mof_C 	C 	0.534	0.563	0.9159	-0.932
Mof_N 	N 	0.567	0.632	0.951	-1.326
Mof_C 	C 	0.5443	0.684	-0	0.303
Mof_C 	C 	0.6	0.746	0.029	-0.082
Mof_C 	C 	0.679	0.729	0.037	0.049
Mof_H 	H 	0.5565	0.6018	0.8067	-0.106
Mof_H 	H 	0.558	0.6029	0.9413	1.492
Mof_H 	H 	0.5206	0.8316	0.0419	-0.001
Mof_H 	H 	0.6064	0.9259	0.0859	0.073
Mof_H 	H 	0.7375	0.8969	0.0991	-0.007
Mof_H 	H 	0.7828	0.7737	0.0683	0.071
Mof_H 	H 	0.697	0.6794	0.0243	0.026
Mof_C 	C 	0.573	0.82	0.047	0.04
Mof_C 	C 	0.625	0.876	0.074	-0.136
Mof_C 	C 	0.703	0.859	0.081	0.065
Mof_C 	C 	0.73	0.785	0.063	-0.126
Mof_C 	C 	0.4379	0.1657	0.5281	0.633
Mof_C 	C 	0.437	0.0841	0.534	-1.138
Mof_N 	N 	0.368	0.049	0.567	-1.634
Mof_C 	C 	0.316	0	0.5443	0.395
Mof_C 	C 	0.254	0.971	0.6	-0.052
Mof_C 	C 	0.271	0.963	0.679	0.136
Mof_H 	H 	0.3982	0.1933	0.5565	-0.147
Mof_H 	H 	0.3971	0.0587	0.558	1.784
Mof_H 	H 	0.1684	0.9581	0.5206	0.041
Mof_H 	H 	0.0741	0.9141	0.6064	0.077
Mof_H 	H 	0.1031	0.9009	0.7375	-0.002
Mof_H 	H 	0.2263	0.9317	0.7828	0.097
Mof_H 	H 	0.3206	0.9757	0.697	-0.001
Mof_C 	C 	0.18	0.953	0.573	0.044
Mof_C 	C 	0.124	0.926	0.625	-0.133
Mof_C 	C 	0.141	0.919	0.703	0.102
Mof_C 	C 	0.215	0.937	0.73	-0.187
Mof_C 	C 	0.4379	0.8343	0.4719	0.523
Mof_C 	C 	0.437	0.9159	0.466	-0.938
Mof_N 	N 	0.368	0.951	0.433	-1.337
Mof_C 	C 	0.316	0	0.4557	0.307
Mof_C 	C 	0.254	0.029	0.4	-0.09
Mof_C 	C 	0.271	0.037	0.321	0.062
Mof_H 	H 	0.3982	0.8067	0.4435	-0.11
Mof_H 	H 	0.3971	0.9413	0.442	1.502
Mof_H 	H 	0.1684	0.0419	0.4794	-0.007
Mof_H 	H 	0.0741	0.0859	0.3936	0.061
Mof_H 	H 	0.1031	0.0991	0.2625	-0.008
Mof_H 	H 	0.2263	0.0683	0.2172	0.072
Mof_H 	H 	0.3206	0.0243	0.303	0.018
Mof_C 	C 	0.18	0.047	0.427	0.029
Mof_C 	C 	0.124	0.074	0.375	-0.13
Mof_C 	C 	0.141	0.081	0.297	0.055
Mof_C 	C 	0.215	0.063	0.27	-0.146
Mof_C 	C 	0.5621	0.1657	0.4719	0.63
Mof_C 	C 	0.563	0.0841	0.466	-1.138
Mof_N 	N 	0.632	0.049	0.433	-1.636
Mof_C 	C 	0.684	0	0.4557	0.399
Mof_C 	C 	0.746	0.971	0.4	-0.055
Mof_C 	C 	0.729	0.963	0.321	0.138
Mof_H 	H 	0.6018	0.1933	0.4435	-0.145
Mof_H 	H 	0.6029	0.0587	0.442	1.786
Mof_H 	H 	0.8316	0.9581	0.4794	0.047
Mof_H 	H 	0.9259	0.9141	0.3936	0.091
Mof_H 	H 	0.8969	0.9009	0.2625	-0.009
Mof_H 	H 	0.7737	0.9317	0.2172	0.098
Mof_H 	H 	0.6794	0.9757	0.303	-0.005
Mof_C 	C 	0.82	0.953	0.427	0.062
Mof_C 	C 	0.876	0.926	0.375	-0.148
Mof_C 	C 	0.859	0.919	0.297	0.116
Mof_C 	C 	0.785	0.937	0.27	-0.188
Mof_C 	C 	0.5621	0.8343	0.5281	0.521
Mof_C 	C 	0.563	0.9159	0.534	-0.932
Mof_N 	N 	0.632	0.951	0.567	-1.326
Mof_C 	C 	0.684	0	0.5443	0.303
Mof_C 	C 	0.746	0.029	0.6	-0.082
Mof_C 	C 	0.729	0.037	0.679	0.049
Mof_H 	H 	0.6018	0.8067	0.5565	-0.106
Mof_H 	H 	0.6029	0.9413	0.558	1.492
Mof_H 	H 	0.8316	0.0419	0.5206	-0.001
Mof_H 	H 	0.9259	0.0859	0.6064	0.073
Mof_H 	H 	0.8969	0.0991	0.7375	-0.007
Mof_H 	H 	0.7737	0.0683	0.7828	0.071
Mof_H 	H 	0.6794	0.0243	0.697	0.026
Mof_C 	C 	0.82	0.047	0.573	0.04
Mof_C 	C 	0.876	0.074	0.625	-0.136
Mof_C 	C 	0.859	0.081	0.703	0.065
Mof_C 	C 	0.785	0.063	0.73	-0.126
Mof_Zn	Zn	0.56517	0.43483	0.43483	1.229
Mof_Zn	Zn	0.43483	0.56517	0.43483	1.229
Mof_Zn	Zn	0.43483	0.43483	0.56517	1.229
Mof_Zn	Zn	0.56517	0.56517	0.56517	1.228
Mof_O 	O 	0.5449	0.3263	0.4551	-0.573
Mof_O 	O 	0.4551	0.6737	0.4551	-0.556
Mof_O 	O 	0.4551	0.3263	0.5449	-0.573
Mof_O 	O 	0.5449	0.6737	0.5449	-0.555
Mof_O 	O 	0.4551	0.5449	0.3263	-0.573
Mof_O 	O 	0.4551	0.4551	0.6737	-0.556
Mof_O 	O 	0.5449	0.4551	0.3263	-0.573
Mof_O 	O 	0.5449	0.5449	0.6737	-0.555
Mof_O 	O 	0.3263	0.4551	0.5449	-0.573
Mof_O 	O 	0.6737	0.4551	0.4551	-0.556
Mof_O 	O 	0.3263	0.5449	0.4551	-0.573
Mof_O 	O 	0.6737	0.5449	0.5449	-0.555
Mof_O 	O 	0.5	0.5	0.5	-0.947
Mof_C 	C 	0.5	0.2873	0.5	0.774
Mof_C 	C 	0.5	0.2051	0.5	-1.046
Mof_C 	C 	0.5	0.0428	0.5	0.934
Mof_C 	C 	0.5	0.7127	0.5	0.707
Mof_C 	C 	0.5	0.7949	0.5	-0.881
Mof_C 	C 	0.5	0.9572	0.5	0.763
Mof_C 	C 	0.5	0.5	0.2873	0.774
Mof_C 	C 	0.5	0.5	0.2051	-1.046
Mof_C 	C 	0.5	0.5	0.0428	0.934
Mof_C 	C 	0.5	0.5	0.7127	0.707
Mof_C 	C 	0.5	0.5	0.7949	-0.881
Mof_C 	C 	0.5	0.5	0.9572	0.763
Mof_C 	C 	0.2873	0.5	0.5	0.774
Mof_C 	C 	0.2051	0.5	0.5	-1.046
Mof_C 	C 	0.0428	0.5	0.5	0.934
Mof_C 	C 	0.7127	0.5	0.5	0.707
Mof_C 	C 	0.7949	0.5	0.5	-0.881
Mof_C 	C 	0.9572	0.5	0.5	0.763
_end
