# CIF file generated by openbabel 2.4.1, see http://openbabel.sf.net
data_I
_chemical_name_common 'image0'
_cell_length_a 14.915
_cell_length_b 15.7739
_cell_length_c 16.032
_cell_angle_alpha 100.659
_cell_angle_beta 112.209
_cell_angle_gamma 107.228
_space_group_name_H-M_alt 'P 1'
_space_group_name_Hall 'P 1'
loop_
    _symmetry_equiv_pos_as_xyz
    x,y,z
loop_
    _atom_site_label
    _atom_site_type_symbol
    _atom_site_fract_x
    _atom_site_fract_y
    _atom_site_fract_z
    _atom_site_occupancy
    Cd1     Cd   0.63231   0.76886   0.80324   1.000
    Cd2     Cd   0.69141   0.57245   0.82020   1.000
    Cd3     Cd   0.78987   0.76336   0.06296   1.000
    O1      O    0.79960   0.73740   0.86810   1.000
    O2      O    0.91790   0.80790   0.02200   1.000
    O3      O    0.24920   0.07830   0.12050   1.000
    O4      O    0.26630   0.13530   0.00900   1.000
    O5      O    0.50150   0.79740   0.85140   1.000
    O6      O    0.46170   0.74930   0.69970   1.000
    O7      O    0.94130   0.81110   0.21450   1.000
    O8      O    0.80070   0.81740   0.21120   1.000
    O9      O    0.59140   0.64670   0.86060   1.000
    O10     O    0.61720   0.68470   0.01140   1.000
    O11     O    0.34660   0.51180   0.08940   1.000
    O12     O    0.20920   0.38490   0.97710   1.000
    O13     O    0.84570   0.58760   0.80650   1.000
    O14     O    0.72820   0.44550   0.74740   1.000
    O15     O    0.33320   0.24150   0.33080   1.000
    O16     O    0.38810   0.37610   0.30700   1.000
    N1      N    0.01550   0.85180   0.69760   1.000
    N2      N    0.19350   0.45630   0.67020   1.000
    C1      C    0.89050   0.79190   0.93440   1.000
    C2      C    0.97250   0.84690   0.90990   1.000
    C3      C    0.05880   0.92640   0.98076   1.000
    H1      H    0.06800   0.94251   0.04442   1.000
    C4      C    0.13170   0.98250   0.95843   1.000
    C5      C    0.11820   0.95890   0.86530   1.000
    H2      H    0.16798   0.99722   0.85002   1.000
    C6      C    0.03190   0.87940   0.79447   1.000
    C7      C    0.95900   0.82335   0.81680   1.000
    H3      H    0.90004   0.76898   0.76840   1.000
    C8      C    0.22130   0.07080   0.03380   1.000
    C9      C    0.01220   0.75720   0.65940   1.000
    H4      H    0.97140   0.73429   0.58883   1.000
    H5      H    0.97430   0.71317   0.68337   1.000
    C10     C    0.12150   0.75560   0.68690   1.000
    C11     C    0.15620   0.74670   0.61785   1.000
    H6      H    0.11056   0.73765   0.55363   1.000
    C12     C    0.25780   0.75090   0.64280   1.000
    H7      H    0.28158   0.74481   0.59564   1.000
    C13     C    0.32460   0.76410   0.73680   1.000
    C14     C    0.28990   0.77300   0.80580   1.000
    H8      H    0.33554   0.78205   0.86999   1.000
    C15     C    0.18830   0.76880   0.78080   1.000
    H9      H    0.16452   0.77489   0.82798   1.000
    C16     C    0.43650   0.77130   0.76410   1.000
    C17     C    0.07400   0.92350   0.66970   1.000
    H10     H    0.14816   0.92951   0.69544   1.000
    H11     H    0.07492   0.98485   0.69929   1.000
    C18     C    0.02870   0.90200   0.56310   1.000
    C19     C    0.92200   0.88100   0.50930   1.000
    H12     H    0.87838   0.88108   0.53984   1.000
    C20     C    0.87900   0.86050   0.41080   1.000
    H13     H    0.80599   0.84610   0.37396   1.000
    C21     C    0.94270   0.86100   0.36600   1.000
    C22     C    0.04950   0.88200   0.41990   1.000
    H14     H    0.09309   0.88226   0.38931   1.000
    C23     C    0.09250   0.90300   0.51840   1.000
    H15     H    0.16548   0.91724   0.55518   1.000
    C24     C    0.89360   0.82830   0.25910   1.000
    C25     C    0.55920   0.64240   0.92400   1.000
    C26     C    0.44653   0.58140   0.89180   1.000
    C27     C    0.41750   0.55360   0.95837   1.000
    H16     H    0.46779   0.57743   0.02405   1.000
    C28     C    0.31470   0.49070   0.92890   1.000
    C29     C    0.24110   0.45580   0.83280   1.000
    H17     H    0.17090   0.41287   0.81259   1.000
    C30     C    0.27020   0.48370   0.76616   1.000
    C31     C    0.37290   0.54650   0.79570   1.000
    H18     H    0.39275   0.56553   0.75014   1.000
    C32     C    0.28740   0.46030   0.00240   1.000
    C33     C    0.08950   0.38370   0.63550   1.000
    H19     H    0.09710   0.33041   0.65745   1.000
    H20     H    0.05465   0.36026   0.56474   1.000
    C34     C    0.01910   0.41650   0.66840   1.000
    C35     C    0.92390   0.34980   0.65270   1.000
    H21     H    0.90433   0.28488   0.62232   1.000
    C36     C    0.85730   0.37820   0.68150   1.000
    H22     H    0.79228   0.33260   0.67082   1.000
    C37     C    0.88590   0.47320   0.72600   1.000
    C38     C    0.98110   0.53980   0.74170   1.000
    H23     H    0.00065   0.60473   0.77209   1.000
    C39     C    0.04770   0.51150   0.71290   1.000
    H24     H    0.11271   0.55701   0.72359   1.000
    C40     C    0.81570   0.50260   0.76130   1.000
    C41     C    0.21660   0.50250   0.60550   1.000
    H25     H    0.26534   0.56919   0.64313   1.000
    H26     H    0.14997   0.50191   0.55860   1.000
    C42     C    0.26600   0.45870   0.55010   1.000
    C43     C    0.25130   0.36480   0.53320   1.000
    H27     H    0.21954   0.32898   0.56374   1.000
    C44     C    0.28300   0.32310   0.47140   1.000
    H28     H    0.27297   0.25893   0.45983   1.000
    C45     C    0.32950   0.37550   0.42670   1.000
    C46     C    0.34420   0.46950   0.44370   1.000
    H29     H    0.37592   0.50524   0.41310   1.000
    C47     C    0.31240   0.51110   0.50540   1.000
    H30     H    0.32249   0.57530   0.51701   1.000
    C48     C    0.35160   0.32810   0.35070   1.000
    O17     O    0.92160   0.83920   0.21710   1.000
    O18     O    0.76750   0.79250   0.21150   1.000
    O19     O    0.80340   0.54310   0.78060   1.000
    O20     O    0.68990   0.39590   0.70160   1.000
    H31     H    0.14687   0.92678   0.69066   1.000
    H32     H    0.07855   0.98585   0.70135   1.000
    C49     C    0.01900   0.89900   0.56230   1.000
    C50     C    0.90990   0.87000   0.51370   1.000
    H33     H    0.86986   0.86649   0.54802   1.000
    C51     C    0.85940   0.84730   0.41490   1.000
    H34     H    0.78485   0.82750   0.38164   1.000
    C52     C    0.91800   0.85310   0.36460   1.000
    C53     C    0.02700   0.88200   0.41320   1.000
    H35     H    0.06707   0.88613   0.37888   1.000
    C54     C    0.07750   0.90500   0.51200   1.000
    H36     H    0.15209   0.92512   0.54526   1.000
    C55     C    0.86460   0.82630   0.25790   1.000
    H37     H    0.09900   0.33322   0.66188   1.000
    H38     H    0.05959   0.35650   0.56528   1.000
    C56     C    0.00730   0.40680   0.65510   1.000
    C57     C    0.91720   0.33270   0.63880   1.000
    H39     H    0.90625   0.26952   0.61100   1.000
    C58     C    0.84310   0.35100   0.66320   1.000
    H40     H    0.78149   0.30030   0.65209   1.000
    C59     C    0.85910   0.44340   0.70390   1.000
    C60     C    0.94910   0.51750   0.72020   1.000
    H41     H    0.96007   0.58066   0.74801   1.000
    C61     C    0.02330   0.49920   0.69580   1.000
    H42     H    0.08483   0.54987   0.70693   1.000
    C62     C    0.77830   0.46140   0.73010   1.000
    Cd4     Cd   0.36769   0.23114   0.19676   1.000
    Cd5     Cd   0.30859   0.42755   0.17980   1.000
    Cd6     Cd   0.21013   0.23664   0.93704   1.000
    O21     O    0.20040   0.26260   0.13190   1.000
    O22     O    0.08210   0.19210   0.97800   1.000
    O23     O    0.75080   0.92170   0.87950   1.000
    O24     O    0.73370   0.86470   0.99100   1.000
    O25     O    0.49850   0.20260   0.14860   1.000
    O26     O    0.53830   0.25070   0.30030   1.000
    O27     O    0.05870   0.18890   0.78550   1.000
    O28     O    0.19930   0.18260   0.78880   1.000
    O29     O    0.40860   0.35330   0.13940   1.000
    O30     O    0.38280   0.31530   0.98860   1.000
    O31     O    0.65340   0.48820   0.91060   1.000
    O32     O    0.79080   0.61510   0.02290   1.000
    O33     O    0.15430   0.41240   0.19350   1.000
    O34     O    0.27180   0.55450   0.25260   1.000
    O35     O    0.66680   0.75850   0.66920   1.000
    O36     O    0.61190   0.62390   0.69300   1.000
    N3      N    0.98450   0.14820   0.30240   1.000
    N4      N    0.80650   0.54370   0.32980   1.000
    C63     C    0.10950   0.20810   0.06560   1.000
    C64     C    0.02750   0.15310   0.09010   1.000
    C65     C    0.94120   0.07360   0.01924   1.000
    H43     H    0.93200   0.05749   0.95558   1.000
    C66     C    0.86830   0.01750   0.04157   1.000
    C67     C    0.88180   0.04110   0.13470   1.000
    H44     H    0.83202   0.00278   0.14998   1.000
    C68     C    0.96810   0.12060   0.20553   1.000
    C69     C    0.04100   0.17665   0.18320   1.000
    H45     H    0.09996   0.23102   0.23160   1.000
    C70     C    0.77870   0.92920   0.96620   1.000
    C71     C    0.98780   0.24280   0.34060   1.000
    H46     H    0.02860   0.26571   0.41117   1.000
    H47     H    0.02570   0.28683   0.31663   1.000
    C72     C    0.87850   0.24440   0.31310   1.000
    C73     C    0.84380   0.25330   0.38215   1.000
    H48     H    0.88944   0.26235   0.44637   1.000
    C74     C    0.74220   0.24910   0.35720   1.000
    H49     H    0.71842   0.25519   0.40436   1.000
    C75     C    0.67540   0.23590   0.26320   1.000
    C76     C    0.71010   0.22700   0.19420   1.000
    H50     H    0.66446   0.21795   0.13001   1.000
    C77     C    0.81170   0.23120   0.21920   1.000
    H51     H    0.83548   0.22511   0.17202   1.000
    C78     C    0.56350   0.22870   0.23590   1.000
    C79     C    0.92600   0.07650   0.33030   1.000
    H52     H    0.85184   0.07049   0.30456   1.000
    H53     H    0.92508   0.01515   0.30071   1.000
    C80     C    0.97130   0.09800   0.43690   1.000
    C81     C    0.07800   0.11900   0.49070   1.000
    H54     H    0.12162   0.11892   0.46016   1.000
    C82     C    0.12100   0.13950   0.58920   1.000
    H55     H    0.19401   0.15390   0.62604   1.000
    C83     C    0.05730   0.13900   0.63400   1.000
    C84     C    0.95050   0.11800   0.58010   1.000
    H56     H    0.90691   0.11774   0.61069   1.000
    C85     C    0.90750   0.09700   0.48160   1.000
    H57     H    0.83452   0.08276   0.44482   1.000
    C86     C    0.10640   0.17170   0.74090   1.000
    C87     C    0.44080   0.35760   0.07600   1.000
    C88     C    0.55347   0.41860   0.10820   1.000
    C89     C    0.58250   0.44640   0.04163   1.000
    H58     H    0.53221   0.42257   0.97595   1.000
    C90     C    0.68530   0.50930   0.07110   1.000
    C91     C    0.75890   0.54420   0.16720   1.000
    H59     H    0.82910   0.58713   0.18741   1.000
    C92     C    0.72980   0.51630   0.23384   1.000
    C93     C    0.62710   0.45350   0.20430   1.000
    H60     H    0.60725   0.43447   0.24986   1.000
    C94     C    0.71260   0.53970   0.99760   1.000
    C95     C    0.91050   0.61630   0.36450   1.000
    H61     H    0.90290   0.66959   0.34255   1.000
    H62     H    0.94535   0.63974   0.43526   1.000
    C96     C    0.98090   0.58350   0.33160   1.000
    C97     C    0.07610   0.65020   0.34730   1.000
    H63     H    0.09567   0.71512   0.37768   1.000
    C98     C    0.14270   0.62180   0.31850   1.000
    H64     H    0.20772   0.66740   0.32918   1.000
    C99     C    0.11410   0.52680   0.27400   1.000
    C100    C    0.01890   0.46020   0.25830   1.000
    H65     H    0.99935   0.39527   0.22791   1.000
    C101    C    0.95230   0.48850   0.28710   1.000
    H66     H    0.88729   0.44299   0.27641   1.000
    C102    C    0.18430   0.49740   0.23870   1.000
    C103    C    0.78340   0.49750   0.39450   1.000
    H67     H    0.73466   0.43081   0.35687   1.000
    H68     H    0.85003   0.49809   0.44140   1.000
    C104    C    0.73400   0.54130   0.44990   1.000
    C105    C    0.74870   0.63520   0.46680   1.000
    H69     H    0.78046   0.67102   0.43626   1.000
    C106    C    0.71700   0.67690   0.52860   1.000
    H70     H    0.72703   0.74107   0.54017   1.000
    C107    C    0.67050   0.62450   0.57330   1.000
    C108    C    0.65580   0.53050   0.55630   1.000
    H71     H    0.62408   0.49476   0.58690   1.000
    C109    C    0.68760   0.48890   0.49460   1.000
    H72     H    0.67751   0.42470   0.48299   1.000
    C110    C    0.64840   0.67190   0.64930   1.000
    O37     O    0.07840   0.16080   0.78290   1.000
    O38     O    0.23250   0.20750   0.78850   1.000
    O39     O    0.19660   0.45690   0.21940   1.000
    O40     O    0.31010   0.60410   0.29840   1.000
    H73     H    0.85313   0.07322   0.30934   1.000
    H74     H    0.92145   0.01415   0.29865   1.000
    C111    C    0.98100   0.10100   0.43770   1.000
    C112    C    0.09010   0.13000   0.48630   1.000
    H75     H    0.13014   0.13351   0.45198   1.000
    C113    C    0.14060   0.15270   0.58510   1.000
    H76     H    0.21515   0.17250   0.61836   1.000
    C114    C    0.08200   0.14690   0.63540   1.000
    C115    C    0.97300   0.11800   0.58680   1.000
    H77     H    0.93293   0.11387   0.62112   1.000
    C116    C    0.92250   0.09500   0.48800   1.000
    H78     H    0.84791   0.07488   0.45474   1.000
    C117    C    0.13540   0.17370   0.74210   1.000
    H79     H    0.90100   0.66678   0.33812   1.000
    H80     H    0.94041   0.64350   0.43472   1.000
    C118    C    0.99270   0.59320   0.34490   1.000
    C119    C    0.08280   0.66730   0.36120   1.000
    H81     H    0.09375   0.73048   0.38900   1.000
    C120    C    0.15690   0.64900   0.33680   1.000
    H82     H    0.21851   0.69970   0.34791   1.000
    C121    C    0.14090   0.55660   0.29610   1.000
    C122    C    0.05090   0.48250   0.27980   1.000
    H83     H    0.03993   0.41934   0.25199   1.000
    C123    C    0.97670   0.50080   0.30420   1.000
    H84     H    0.91517   0.45013   0.29307   1.000
    C124    C    0.22170   0.53860   0.26990   1.000
