# CIF file generated by openbabel 2.4.1, see http://openbabel.sf.net
data_I
_chemical_name_common 'image0'
_cell_length_a 15.0927
_cell_length_b 15.0927
_cell_length_c 19.2519
_cell_angle_alpha 90
_cell_angle_beta 90
_cell_angle_gamma 90
_space_group_name_H-M_alt 'P 1'
_space_group_name_Hall 'P 1'
loop_
    _symmetry_equiv_pos_as_xyz
    x,y,z
loop_
    _atom_site_label
    _atom_site_type_symbol
    _atom_site_fract_x
    _atom_site_fract_y
    _atom_site_fract_z
    _atom_site_occupancy
    O1      O    0.05366   0.87649   0.05769   1.000
    C1      C    0.08970   0.00840   0.20950   1.000
    C2      C    0.16990   0.73390   0.93761   1.000
    H1      H    0.14700   0.75490   0.89530   1.000
    C3      C    0.03990   0.08210   0.20780   1.000
    C4      C    0.94660   0.07660   0.21070   1.000
    O2      O    0.55366   0.37649   0.55769   1.000
    C5      C    0.58970   0.50840   0.70950   1.000
    C6      C    0.66990   0.23390   0.43761   1.000
    H2      H    0.64700   0.25490   0.39530   1.000
    C7      C    0.53990   0.58210   0.70780   1.000
    C8      C    0.44660   0.57660   0.71070   1.000
    O3      O    0.94634   0.12351   0.05769   1.000
    C9      C    0.91030   0.99160   0.20950   1.000
    C10     C    0.83010   0.26610   0.93761   1.000
    H3      H    0.85300   0.24510   0.89530   1.000
    C11     C    0.96010   0.91790   0.20780   1.000
    C12     C    0.05340   0.92340   0.21070   1.000
    O4      O    0.44634   0.62351   0.55769   1.000
    C13     C    0.41030   0.49160   0.70950   1.000
    C14     C    0.33010   0.76610   0.43761   1.000
    H4      H    0.35300   0.74510   0.39530   1.000
    C15     C    0.46010   0.41790   0.70780   1.000
    C16     C    0.55340   0.42340   0.71070   1.000
    O5      O    0.12351   0.05366   0.05769   1.000
    C17     C    0.99160   0.08970   0.20950   1.000
    C18     C    0.26610   0.16990   0.93761   1.000
    H5      H    0.24510   0.14700   0.89530   1.000
    C19     C    0.91790   0.03990   0.20780   1.000
    C20     C    0.92340   0.94660   0.21070   1.000
    O6      O    0.62351   0.55366   0.55769   1.000
    C21     C    0.49160   0.58970   0.70950   1.000
    C22     C    0.76610   0.66990   0.43761   1.000
    H6      H    0.74510   0.64700   0.39530   1.000
    C23     C    0.41790   0.53990   0.70780   1.000
    C24     C    0.42340   0.44660   0.71070   1.000
    O7      O    0.87649   0.94634   0.05769   1.000
    C25     C    0.00840   0.91030   0.20950   1.000
    C26     C    0.73390   0.83010   0.93761   1.000
    H7      H    0.75490   0.85300   0.89530   1.000
    C27     C    0.08210   0.96010   0.20780   1.000
    C28     C    0.07660   0.05340   0.21070   1.000
    O8      O    0.37649   0.44634   0.55769   1.000
    C29     C    0.50840   0.41030   0.70950   1.000
    C30     C    0.23390   0.33010   0.43761   1.000
    H8      H    0.25490   0.35300   0.39530   1.000
    C31     C    0.58210   0.46010   0.70780   1.000
    C32     C    0.57660   0.55340   0.71070   1.000
    O9      O    0.94634   0.87649   0.44231   1.000
    C33     C    0.91030   0.00840   0.29050   1.000
    C34     C    0.83010   0.73390   0.56239   1.000
    H9      H    0.85300   0.75490   0.60470   1.000
    C35     C    0.96010   0.08210   0.29220   1.000
    C36     C    0.05340   0.07660   0.28930   1.000
    O10     O    0.44634   0.37649   0.94231   1.000
    C37     C    0.41030   0.50840   0.79050   1.000
    C38     C    0.33010   0.23390   0.06239   1.000
    H10     H    0.35300   0.25490   0.10470   1.000
    C39     C    0.46010   0.58210   0.79220   1.000
    C40     C    0.55340   0.57660   0.78930   1.000
    O11     O    0.05366   0.12351   0.44231   1.000
    C41     C    0.08970   0.99160   0.29050   1.000
    C42     C    0.16990   0.26610   0.56239   1.000
    H11     H    0.14700   0.24510   0.60470   1.000
    C43     C    0.03990   0.91790   0.29220   1.000
    C44     C    0.94660   0.92340   0.28930   1.000
    O12     O    0.55366   0.62351   0.94231   1.000
    C45     C    0.58970   0.49160   0.79050   1.000
    C46     C    0.66990   0.76610   0.06239   1.000
    H12     H    0.64700   0.74510   0.10470   1.000
    C47     C    0.53990   0.41790   0.79220   1.000
    C48     C    0.44660   0.42340   0.78930   1.000
    O13     O    0.87649   0.05366   0.44231   1.000
    C49     C    0.00840   0.08970   0.29050   1.000
    C50     C    0.73390   0.16990   0.56239   1.000
    H13     H    0.75490   0.14700   0.60470   1.000
    C51     C    0.08210   0.03990   0.29220   1.000
    C52     C    0.07660   0.94660   0.28930   1.000
    O14     O    0.37649   0.55366   0.94231   1.000
    C53     C    0.50840   0.58970   0.79050   1.000
    C54     C    0.23390   0.66990   0.06239   1.000
    H14     H    0.25490   0.64700   0.10470   1.000
    C55     C    0.58210   0.53990   0.79220   1.000
    C56     C    0.57660   0.44660   0.78930   1.000
    O15     O    0.12351   0.94634   0.44231   1.000
    C57     C    0.99160   0.91030   0.29050   1.000
    C58     C    0.26610   0.83010   0.56239   1.000
    H15     H    0.24510   0.85300   0.60470   1.000
    C59     C    0.91790   0.96010   0.29220   1.000
    C60     C    0.92340   0.05340   0.28930   1.000
    O16     O    0.62351   0.44634   0.94231   1.000
    C61     C    0.49160   0.41030   0.79050   1.000
    C62     C    0.76610   0.33010   0.06239   1.000
    H16     H    0.74510   0.35300   0.10470   1.000
    C63     C    0.41790   0.46010   0.79220   1.000
    C64     C    0.42340   0.55340   0.78930   1.000
    O17     O    0.94634   0.12351   0.94231   1.000
    C65     C    0.91030   0.99160   0.79050   1.000
    C66     C    0.83010   0.26610   0.06239   1.000
    H17     H    0.85300   0.24510   0.10470   1.000
    C67     C    0.96010   0.91790   0.79220   1.000
    C68     C    0.05340   0.92340   0.78930   1.000
    O18     O    0.44634   0.62351   0.44231   1.000
    C69     C    0.41030   0.49160   0.29050   1.000
    C70     C    0.33010   0.76610   0.56239   1.000
    H18     H    0.35300   0.74510   0.60470   1.000
    C71     C    0.46010   0.41790   0.29220   1.000
    C72     C    0.55340   0.42340   0.28930   1.000
    O19     O    0.05366   0.87649   0.94231   1.000
    C73     C    0.08970   0.00840   0.79050   1.000
    C74     C    0.16990   0.73390   0.06239   1.000
    H19     H    0.14700   0.75490   0.10470   1.000
    C75     C    0.03990   0.08210   0.79220   1.000
    C76     C    0.94660   0.07660   0.78930   1.000
    O20     O    0.55366   0.37649   0.44231   1.000
    C77     C    0.58970   0.50840   0.29050   1.000
    C78     C    0.66990   0.23390   0.56239   1.000
    H20     H    0.64700   0.25490   0.60470   1.000
    C79     C    0.53990   0.58210   0.29220   1.000
    C80     C    0.44660   0.57660   0.28930   1.000
    O21     O    0.87649   0.94634   0.94231   1.000
    C81     C    0.00840   0.91030   0.79050   1.000
    C82     C    0.73390   0.83010   0.06239   1.000
    H21     H    0.75490   0.85300   0.10470   1.000
    C83     C    0.08210   0.96010   0.79220   1.000
    C84     C    0.07660   0.05340   0.78930   1.000
    O22     O    0.37649   0.44634   0.44231   1.000
    C85     C    0.50840   0.41030   0.29050   1.000
    C86     C    0.23390   0.33010   0.56239   1.000
    H22     H    0.25490   0.35300   0.60470   1.000
    C87     C    0.58210   0.46010   0.29220   1.000
    C88     C    0.57660   0.55340   0.28930   1.000
    O23     O    0.12351   0.05366   0.94231   1.000
    C89     C    0.99160   0.08970   0.79050   1.000
    C90     C    0.26610   0.16990   0.06239   1.000
    H23     H    0.24510   0.14700   0.10470   1.000
    C91     C    0.91790   0.03990   0.79220   1.000
    C92     C    0.92340   0.94660   0.78930   1.000
    O24     O    0.62351   0.55366   0.44231   1.000
    C93     C    0.49160   0.58970   0.29050   1.000
    C94     C    0.76610   0.66990   0.56239   1.000
    H24     H    0.74510   0.64700   0.60470   1.000
    C95     C    0.41790   0.53990   0.29220   1.000
    C96     C    0.42340   0.44660   0.28930   1.000
    O25     O    0.05366   0.12351   0.55769   1.000
    C97     C    0.08970   0.99160   0.70950   1.000
    C98     C    0.16990   0.26610   0.43761   1.000
    H25     H    0.14700   0.24510   0.39530   1.000
    C99     C    0.03990   0.91790   0.70780   1.000
    C100    C    0.94660   0.92340   0.71070   1.000
    O26     O    0.55366   0.62351   0.05769   1.000
    C101    C    0.58970   0.49160   0.20950   1.000
    C102    C    0.66990   0.76610   0.93761   1.000
    H26     H    0.64700   0.74510   0.89530   1.000
    C103    C    0.53990   0.41790   0.20780   1.000
    C104    C    0.44660   0.42340   0.21070   1.000
    O27     O    0.94634   0.87649   0.55769   1.000
    C105    C    0.91030   0.00840   0.70950   1.000
    C106    C    0.83010   0.73390   0.43761   1.000
    H27     H    0.85300   0.75490   0.39530   1.000
    C107    C    0.96010   0.08210   0.70780   1.000
    C108    C    0.05340   0.07660   0.71070   1.000
    O28     O    0.44634   0.37649   0.05769   1.000
    C109    C    0.41030   0.50840   0.20950   1.000
    C110    C    0.33010   0.23390   0.93761   1.000
    H28     H    0.35300   0.25490   0.89530   1.000
    C111    C    0.46010   0.58210   0.20780   1.000
    C112    C    0.55340   0.57660   0.21070   1.000
    O29     O    0.12351   0.94634   0.55769   1.000
    C113    C    0.99160   0.91030   0.70950   1.000
    C114    C    0.26610   0.83010   0.43761   1.000
    H29     H    0.24510   0.85300   0.39530   1.000
    C115    C    0.91790   0.96010   0.70780   1.000
    C116    C    0.92340   0.05340   0.71070   1.000
    O30     O    0.62351   0.44634   0.05769   1.000
    C117    C    0.49160   0.41030   0.20950   1.000
    C118    C    0.76610   0.33010   0.93761   1.000
    H30     H    0.74510   0.35300   0.89530   1.000
    C119    C    0.41790   0.46010   0.20780   1.000
    C120    C    0.42340   0.55340   0.21070   1.000
    O31     O    0.87649   0.05366   0.55769   1.000
    C121    C    0.00840   0.08970   0.70950   1.000
    C122    C    0.73390   0.16990   0.43761   1.000
    H31     H    0.75490   0.14700   0.39530   1.000
    C123    C    0.08210   0.03990   0.70780   1.000
    C124    C    0.07660   0.94660   0.71070   1.000
    O32     O    0.37649   0.55366   0.05769   1.000
    C125    C    0.50840   0.58970   0.20950   1.000
    C126    C    0.23390   0.66990   0.93761   1.000
    H32     H    0.25490   0.64700   0.89530   1.000
    C127    C    0.58210   0.53990   0.20780   1.000
    C128    C    0.57660   0.44660   0.21070   1.000
    Fe1     Fe   0.00000   0.00000   0.07292   1.000
    N1      N    0.00000   0.00000   0.18300   1.000
    Fe2     Fe   0.50000   0.50000   0.57292   1.000
    N2      N    0.50000   0.50000   0.68300   1.000
    Fe3     Fe   0.00000   0.00000   0.42708   1.000
    N3      N    0.00000   0.00000   0.31700   1.000
    Fe4     Fe   0.50000   0.50000   0.92708   1.000
    N4      N    0.50000   0.50000   0.81700   1.000
    Fe5     Fe   0.00000   0.00000   0.92708   1.000
    N5      N    0.00000   0.00000   0.81700   1.000
    Fe6     Fe   0.50000   0.50000   0.42708   1.000
    N6      N    0.50000   0.50000   0.31700   1.000
    Fe7     Fe   0.00000   0.00000   0.57292   1.000
    N7      N    0.00000   0.00000   0.68300   1.000
    Fe8     Fe   0.50000   0.50000   0.07292   1.000
    N8      N    0.50000   0.50000   0.18300   1.000
    C129    C    0.07640   0.84620   0.00000   1.000
    C130    C    0.13840   0.76820   0.00000   1.000
    C131    C    0.57640   0.34620   0.50000   1.000
    C132    C    0.63840   0.26820   0.50000   1.000
    C133    C    0.92360   0.15380   0.00000   1.000
    C134    C    0.86160   0.23180   0.00000   1.000
    C135    C    0.42360   0.65380   0.50000   1.000
    C136    C    0.36160   0.73180   0.50000   1.000
    C137    C    0.15380   0.07640   0.00000   1.000
    C138    C    0.23180   0.13840   0.00000   1.000
    C139    C    0.65380   0.57640   0.50000   1.000
    C140    C    0.73180   0.63840   0.50000   1.000
    C141    C    0.84620   0.92360   0.00000   1.000
    C142    C    0.76820   0.86160   0.00000   1.000
    C143    C    0.34620   0.42360   0.50000   1.000
    C144    C    0.26820   0.36160   0.50000   1.000
    C145    C    0.92360   0.84620   0.50000   1.000
    C146    C    0.86160   0.76820   0.50000   1.000
    C147    C    0.42360   0.34620   0.00000   1.000
    C148    C    0.36160   0.26820   0.00000   1.000
    C149    C    0.07640   0.15380   0.50000   1.000
    C150    C    0.13840   0.23180   0.50000   1.000
    C151    C    0.57640   0.65380   0.00000   1.000
    C152    C    0.63840   0.73180   0.00000   1.000
    C153    C    0.84620   0.07640   0.50000   1.000
    C154    C    0.76820   0.13840   0.50000   1.000
    C155    C    0.34620   0.57640   0.00000   1.000
    C156    C    0.26820   0.63840   0.00000   1.000
    C157    C    0.15380   0.92360   0.50000   1.000
    C158    C    0.23180   0.86160   0.50000   1.000
    C159    C    0.65380   0.42360   0.00000   1.000
    C160    C    0.73180   0.36160   0.00000   1.000
