data_functionalizedCrystal
_audit_creation_method	'EQeq! by Chris Wilmer'
_symmetry_space_group_name_H-M	'P1'
_symmetry_Int_Tables_number	1
_symmetry_cell_setting	triclinic
loop_
_symmetry_equiv_pos_as_xyz
  x,y,z
_cell_length_a	16.834
_cell_length_b	16.834
_cell_length_c	25.705
_cell_angle_alpha	90
_cell_angle_beta	90
_cell_angle_gamma	120
loop_
_atom_site_label
_atom_site_type_symbol
_atom_site_fract_x
_atom_site_fract_y
_atom_site_fract_z
_atom_site_charge
Mof_O 	O 	0.82382	0.34506	0.30697	-0.426
Mof_C 	C 	0.8866	0.3739	0.4099	-0.026
Mof_H 	H 	0.8582	0.3137	0.3981	0.041
Mof_C 	C 	0.9336	0.399	0.457	-0.021
Mof_H 	H 	0.9293	0.3546	0.4802	0.029
Mof_C 	C 	0.9408	0.4027	0.3913	-0.001
Mof_H 	H 	0.9421	0.3574	0.3713	0.034
Mof_C 	C 	0.9808	0.4226	0.4404	-0.058
Mof_H 	H 	0.0215	0.4028	0.4494	0.042
Mof_C 	C 	0.9598	0.473	0.477	0.016
Mof_O 	O 	0.65494	0.47876	0.30697	-0.426
Mof_C 	C 	0.6261	0.5127	0.4099	-0.026
Mof_H 	H 	0.6863	0.5445	0.3981	0.041
Mof_C 	C 	0.601	0.5346	0.457	-0.021
Mof_H 	H 	0.6454	0.5747	0.4802	0.029
Mof_C 	C 	0.5973	0.5381	0.3913	-0.001
Mof_H 	H 	0.6426	0.5847	0.3713	0.034
Mof_C 	C 	0.5774	0.5582	0.4404	-0.058
Mof_H 	H 	0.5972	0.6187	0.4494	0.042
Mof_C 	C 	0.527	0.4868	0.477	0.016
Mof_O 	O 	0.52124	0.17618	0.30697	-0.426
Mof_C 	C 	0.4873	0.1134	0.4099	-0.027
Mof_H 	H 	0.4555	0.1418	0.3981	0.041
Mof_C 	C 	0.4654	0.0664	0.457	-0.021
Mof_H 	H 	0.4253	0.0707	0.4802	0.029
Mof_C 	C 	0.4619	0.0592	0.3913	-0.001
Mof_H 	H 	0.4153	0.0579	0.3713	0.034
Mof_C 	C 	0.4418	0.0192	0.4404	-0.058
Mof_H 	H 	0.3813	0.9785	0.4494	0.043
Mof_C 	C 	0.5132	0.0402	0.477	0.017
Mof_O 	O 	0.17618	0.65494	0.80697	-0.425
Mof_C 	C 	0.1134	0.6261	0.9099	-0.027
Mof_H 	H 	0.1418	0.6863	0.8981	0.043
Mof_C 	C 	0.0664	0.601	0.957	-0.019
Mof_H 	H 	0.0707	0.6454	0.9802	0.03
Mof_C 	C 	0.0592	0.5973	0.8913	0.001
Mof_H 	H 	0.0579	0.6426	0.8713	0.035
Mof_C 	C 	0.0192	0.5774	0.9404	-0.058
Mof_H 	H 	0.9785	0.5972	0.9494	0.043
Mof_C 	C 	0.0402	0.527	0.977	0.017
Mof_O 	O 	0.34506	0.52124	0.80697	-0.425
Mof_C 	C 	0.3739	0.4873	0.9099	-0.025
Mof_H 	H 	0.3137	0.4555	0.8981	0.042
Mof_C 	C 	0.399	0.4654	0.957	-0.02
Mof_H 	H 	0.3546	0.4253	0.9802	0.03
Mof_C 	C 	0.4027	0.4619	0.8913	0
Mof_H 	H 	0.3574	0.4153	0.8713	0.035
Mof_C 	C 	0.4226	0.4418	0.9404	-0.057
Mof_H 	H 	0.4028	0.3813	0.9494	0.043
Mof_C 	C 	0.473	0.5132	0.977	0.016
Mof_O 	O 	0.47876	0.82382	0.80697	-0.425
Mof_C 	C 	0.5127	0.8866	0.9099	-0.027
Mof_H 	H 	0.5445	0.8582	0.8981	0.043
Mof_C 	C 	0.5346	0.9336	0.957	-0.019
Mof_H 	H 	0.5747	0.9293	0.9802	0.03
Mof_C 	C 	0.5381	0.9408	0.8913	0.001
Mof_H 	H 	0.5847	0.9421	0.8713	0.035
Mof_C 	C 	0.5582	0.9808	0.9404	-0.058
Mof_H 	H 	0.6187	0.0215	0.9494	0.043
Mof_C 	C 	0.4868	0.9598	0.977	0.017
Mof_O 	O 	0.34506	0.82382	0.69303	-0.425
Mof_C 	C 	0.3739	0.8866	0.5901	-0.025
Mof_H 	H 	0.3137	0.8582	0.6019	0.042
Mof_C 	C 	0.399	0.9336	0.543	-0.02
Mof_H 	H 	0.3546	0.9293	0.5198	0.03
Mof_C 	C 	0.4027	0.9408	0.6087	0
Mof_H 	H 	0.3574	0.9421	0.6287	0.035
Mof_C 	C 	0.4226	0.9808	0.5596	-0.057
Mof_H 	H 	0.4028	0.0215	0.5506	0.043
Mof_C 	C 	0.473	0.9598	0.523	0.017
Mof_O 	O 	0.47876	0.65494	0.69303	-0.425
Mof_C 	C 	0.5127	0.6261	0.5901	-0.025
Mof_H 	H 	0.5445	0.6863	0.6019	0.042
Mof_C 	C 	0.5346	0.601	0.543	-0.02
Mof_H 	H 	0.5747	0.6454	0.5198	0.03
Mof_C 	C 	0.5381	0.5973	0.6087	0
Mof_H 	H 	0.5847	0.6426	0.6287	0.035
Mof_C 	C 	0.5582	0.5774	0.5596	-0.057
Mof_H 	H 	0.6187	0.5972	0.5506	0.043
Mof_C 	C 	0.4868	0.527	0.523	0.017
Mof_O 	O 	0.17618	0.52124	0.69303	-0.425
Mof_C 	C 	0.1134	0.4873	0.5901	-0.026
Mof_H 	H 	0.1418	0.4555	0.6019	0.042
Mof_C 	C 	0.0664	0.4654	0.543	-0.02
Mof_H 	H 	0.0707	0.4253	0.5198	0.03
Mof_C 	C 	0.0592	0.4619	0.6087	0
Mof_H 	H 	0.0579	0.4153	0.6287	0.035
Mof_C 	C 	0.0192	0.4418	0.5596	-0.057
Mof_H 	H 	0.9785	0.3813	0.5506	0.043
Mof_C 	C 	0.0402	0.5132	0.523	0.017
Mof_O 	O 	0.65494	0.17618	0.19303	-0.425
Mof_C 	C 	0.6261	0.1134	0.0901	-0.027
Mof_H 	H 	0.6863	0.1418	0.1019	0.043
Mof_C 	C 	0.601	0.0664	0.043	-0.019
Mof_H 	H 	0.6454	0.0707	0.0198	0.03
Mof_C 	C 	0.5973	0.0592	0.1087	0.001
Mof_H 	H 	0.6426	0.0579	0.1287	0.035
Mof_C 	C 	0.5774	0.0192	0.0596	-0.058
Mof_H 	H 	0.5972	0.9785	0.0506	0.043
Mof_C 	C 	0.527	0.0402	0.023	0.017
Mof_O 	O 	0.52124	0.34506	0.19303	-0.425
Mof_C 	C 	0.4873	0.3739	0.0901	-0.025
Mof_H 	H 	0.4555	0.3137	0.1019	0.042
Mof_C 	C 	0.4654	0.399	0.043	-0.02
Mof_H 	H 	0.4253	0.3546	0.0198	0.03
Mof_C 	C 	0.4619	0.4027	0.1087	0
Mof_H 	H 	0.4153	0.3574	0.1287	0.035
Mof_C 	C 	0.4418	0.4226	0.0596	-0.057
Mof_H 	H 	0.3813	0.4028	0.0506	0.043
Mof_C 	C 	0.5132	0.473	0.023	0.016
Mof_O 	O 	0.82382	0.47876	0.19303	-0.425
Mof_C 	C 	0.8866	0.5127	0.0901	-0.027
Mof_H 	H 	0.8582	0.5445	0.1019	0.043
Mof_C 	C 	0.9336	0.5346	0.043	-0.019
Mof_H 	H 	0.9293	0.5747	0.0198	0.03
Mof_C 	C 	0.9408	0.5381	0.1087	0.001
Mof_H 	H 	0.9421	0.5847	0.1287	0.035
Mof_C 	C 	0.9808	0.5582	0.0596	-0.058
Mof_H 	H 	0.0215	0.6187	0.0506	0.043
Mof_C 	C 	0.9598	0.4868	0.023	0.017
Mof_O 	O 	0.17618	0.65494	0.69303	-0.425
Mof_C 	C 	0.1134	0.6261	0.5901	-0.025
Mof_H 	H 	0.1418	0.6863	0.6019	0.042
Mof_C 	C 	0.0664	0.601	0.543	-0.02
Mof_H 	H 	0.0707	0.6454	0.5198	0.03
Mof_C 	C 	0.0592	0.5973	0.6087	0
Mof_H 	H 	0.0579	0.6426	0.6287	0.035
Mof_C 	C 	0.0192	0.5774	0.5596	-0.057
Mof_H 	H 	0.9785	0.5972	0.5506	0.043
Mof_C 	C 	0.0402	0.527	0.523	0.017
Mof_O 	O 	0.34506	0.52124	0.69303	-0.425
Mof_C 	C 	0.3739	0.4873	0.5901	-0.025
Mof_H 	H 	0.3137	0.4555	0.6019	0.042
Mof_C 	C 	0.399	0.4654	0.543	-0.02
Mof_H 	H 	0.3546	0.4253	0.5198	0.03
Mof_C 	C 	0.4027	0.4619	0.6087	0
Mof_H 	H 	0.3574	0.4153	0.6287	0.035
Mof_C 	C 	0.4226	0.4418	0.5596	-0.057
Mof_H 	H 	0.4028	0.3813	0.5506	0.043
Mof_C 	C 	0.473	0.5132	0.523	0.017
Mof_O 	O 	0.47876	0.82382	0.69303	-0.425
Mof_C 	C 	0.5127	0.8866	0.5901	-0.026
Mof_H 	H 	0.5445	0.8582	0.6019	0.042
Mof_C 	C 	0.5346	0.9336	0.543	-0.02
Mof_H 	H 	0.5747	0.9293	0.5198	0.03
Mof_C 	C 	0.5381	0.9408	0.6087	0
Mof_H 	H 	0.5847	0.9421	0.6287	0.035
Mof_C 	C 	0.5582	0.9808	0.5596	-0.057
Mof_H 	H 	0.6187	0.0215	0.5506	0.043
Mof_C 	C 	0.4868	0.9598	0.523	0.017
Mof_O 	O 	0.82382	0.34506	0.19303	-0.425
Mof_C 	C 	0.8866	0.3739	0.0901	-0.027
Mof_H 	H 	0.8582	0.3137	0.1019	0.043
Mof_C 	C 	0.9336	0.399	0.043	-0.019
Mof_H 	H 	0.9293	0.3546	0.0198	0.03
Mof_C 	C 	0.9408	0.4027	0.1087	0.001
Mof_H 	H 	0.9421	0.3574	0.1287	0.035
Mof_C 	C 	0.9808	0.4226	0.0596	-0.058
Mof_H 	H 	0.0215	0.4028	0.0506	0.043
Mof_C 	C 	0.9598	0.473	0.023	0.017
Mof_O 	O 	0.65494	0.47876	0.19303	-0.425
Mof_C 	C 	0.6261	0.5127	0.0901	-0.025
Mof_H 	H 	0.6863	0.5445	0.1019	0.042
Mof_C 	C 	0.601	0.5346	0.043	-0.02
Mof_H 	H 	0.6454	0.5747	0.0198	0.03
Mof_C 	C 	0.5973	0.5381	0.1087	0
Mof_H 	H 	0.6426	0.5847	0.1287	0.035
Mof_C 	C 	0.5774	0.5582	0.0596	-0.057
Mof_H 	H 	0.5972	0.6187	0.0506	0.043
Mof_C 	C 	0.527	0.4868	0.023	0.016
Mof_O 	O 	0.52124	0.17618	0.19303	-0.425
Mof_C 	C 	0.4873	0.1134	0.0901	-0.027
Mof_H 	H 	0.4555	0.1418	0.1019	0.043
Mof_C 	C 	0.4654	0.0664	0.043	-0.019
Mof_H 	H 	0.4253	0.0707	0.0198	0.03
Mof_C 	C 	0.4619	0.0592	0.1087	0.001
Mof_H 	H 	0.4153	0.0579	0.1287	0.035
Mof_C 	C 	0.4418	0.0192	0.0596	-0.058
Mof_H 	H 	0.3813	0.9785	0.0506	0.043
Mof_C 	C 	0.5132	0.0402	0.023	0.017
Mof_O 	O 	0.65494	0.17618	0.30697	-0.425
Mof_C 	C 	0.6261	0.1134	0.4099	-0.025
Mof_H 	H 	0.6863	0.1418	0.3981	0.042
Mof_C 	C 	0.601	0.0664	0.457	-0.02
Mof_H 	H 	0.6454	0.0707	0.4802	0.03
Mof_C 	C 	0.5973	0.0592	0.3913	0
Mof_H 	H 	0.6426	0.0579	0.3713	0.035
Mof_C 	C 	0.5774	0.0192	0.4404	-0.057
Mof_H 	H 	0.5972	0.9785	0.4494	0.043
Mof_C 	C 	0.527	0.0402	0.477	0.017
Mof_O 	O 	0.52124	0.34506	0.30697	-0.425
Mof_C 	C 	0.4873	0.3739	0.4099	-0.025
Mof_H 	H 	0.4555	0.3137	0.3981	0.042
Mof_C 	C 	0.4654	0.399	0.457	-0.02
Mof_H 	H 	0.4253	0.3546	0.4802	0.03
Mof_C 	C 	0.4619	0.4027	0.3913	0
Mof_H 	H 	0.4153	0.3574	0.3713	0.035
Mof_C 	C 	0.4418	0.4226	0.4404	-0.057
Mof_H 	H 	0.3813	0.4028	0.4494	0.043
Mof_C 	C 	0.5132	0.473	0.477	0.017
Mof_O 	O 	0.82382	0.47876	0.30697	-0.425
Mof_C 	C 	0.8866	0.5127	0.4099	-0.026
Mof_H 	H 	0.8582	0.5445	0.3981	0.042
Mof_C 	C 	0.9336	0.5346	0.457	-0.02
Mof_H 	H 	0.9293	0.5747	0.4802	0.03
Mof_C 	C 	0.9408	0.5381	0.3913	0
Mof_H 	H 	0.9421	0.5847	0.3713	0.035
Mof_C 	C 	0.9808	0.5582	0.4404	-0.057
Mof_H 	H 	0.0215	0.6187	0.4494	0.043
Mof_C 	C 	0.9598	0.4868	0.477	0.017
Mof_O 	O 	0.34506	0.82382	0.80697	-0.425
Mof_C 	C 	0.3739	0.8866	0.9099	-0.027
Mof_H 	H 	0.3137	0.8582	0.8981	0.043
Mof_C 	C 	0.399	0.9336	0.957	-0.019
Mof_H 	H 	0.3546	0.9293	0.9802	0.03
Mof_C 	C 	0.4027	0.9408	0.8913	0.001
Mof_H 	H 	0.3574	0.9421	0.8713	0.035
Mof_C 	C 	0.4226	0.9808	0.9404	-0.058
Mof_H 	H 	0.4028	0.0215	0.9494	0.043
Mof_C 	C 	0.473	0.9598	0.977	0.017
Mof_O 	O 	0.47876	0.65494	0.80697	-0.425
Mof_C 	C 	0.5127	0.6261	0.9099	-0.025
Mof_H 	H 	0.5445	0.6863	0.8981	0.042
Mof_C 	C 	0.5346	0.601	0.957	-0.02
Mof_H 	H 	0.5747	0.6454	0.9802	0.03
Mof_C 	C 	0.5381	0.5973	0.8913	0
Mof_H 	H 	0.5847	0.6426	0.8713	0.035
Mof_C 	C 	0.5582	0.5774	0.9404	-0.057
Mof_H 	H 	0.6187	0.5972	0.9494	0.043
Mof_C 	C 	0.4868	0.527	0.977	0.016
Mof_O 	O 	0.17618	0.52124	0.80697	-0.425
Mof_C 	C 	0.1134	0.4873	0.9099	-0.027
Mof_H 	H 	0.1418	0.4555	0.8981	0.043
Mof_C 	C 	0.0664	0.4654	0.957	-0.019
Mof_H 	H 	0.0707	0.4253	0.9802	0.03
Mof_C 	C 	0.0592	0.4619	0.8913	0.001
Mof_H 	H 	0.0579	0.4153	0.8713	0.035
Mof_C 	C 	0.0192	0.4418	0.9404	-0.058
Mof_H 	H 	0.9785	0.3813	0.9494	0.043
Mof_C 	C 	0.0402	0.5132	0.977	0.017
Mof_Co	Co	0.73611	0.26389	0.25	1.203
Mof_N 	N 	0.80904	0.19096	0.25	-0.21
Mof_C 	C 	0.9041	0.0959	0.25	0.059
Mof_C 	C 	0.9552	0.0448	0.25	0.097
Mof_Co	Co	0.73611	0.47222	0.25	1.203
Mof_N 	N 	0.80904	0.61808	0.25	-0.21
Mof_C 	C 	0.9041	0.8082	0.25	0.059
Mof_C 	C 	0.9552	0.9104	0.25	0.096
Mof_Co	Co	0.52778	0.26389	0.25	1.203
Mof_N 	N 	0.38192	0.19096	0.25	-0.21
Mof_C 	C 	0.1918	0.0959	0.25	0.059
Mof_C 	C 	0.0896	0.0448	0.25	0.096
Mof_Co	Co	0.26389	0.73611	0.75	1.203
Mof_N 	N 	0.19096	0.80904	0.75	-0.21
Mof_C 	C 	0.0959	0.9041	0.75	0.059
Mof_C 	C 	0.0448	0.9552	0.75	0.097
Mof_Co	Co	0.26389	0.52778	0.75	1.203
Mof_N 	N 	0.19096	0.38192	0.75	-0.21
Mof_C 	C 	0.0959	0.1918	0.75	0.059
Mof_C 	C 	0.0448	0.0896	0.75	0.096
Mof_Co	Co	0.47222	0.73611	0.75	1.203
Mof_N 	N 	0.61808	0.80904	0.75	-0.21
Mof_C 	C 	0.8082	0.9041	0.75	0.059
Mof_C 	C 	0.9104	0.9552	0.75	0.096
Mof_O 	O 	0.66667	0.33333	0.25	-0.583
Mof_O 	O 	0.33333	0.66667	0.75	-0.583
Mof_N 	N 	0.04685	0.0937	0.25	-0.14
Mof_N 	N 	0.9063	0.95315	0.25	-0.14
Mof_N 	N 	0.04685	0.95315	0.25	-0.14
Mof_N 	N 	0.95315	0.9063	0.75	-0.14
Mof_N 	N 	0.0937	0.04685	0.75	-0.14
Mof_N 	N 	0.95315	0.04685	0.75	-0.14
Mof_C 	C 	0.8401	0.42005	0.3258	0.368
Mof_C 	C 	0.8838	0.4419	0.3813	-0.065
Mof_C 	C 	0.9885	0.49425	0.469	-0.021
Mof_C 	C 	0.8995	0.44975	0.372	-0.004
Mof_C 	C 	0.57995	0.42005	0.3258	0.368
Mof_C 	C 	0.5581	0.4419	0.3813	-0.065
Mof_C 	C 	0.50575	0.49425	0.469	-0.021
Mof_C 	C 	0.55025	0.44975	0.372	-0.004
Mof_C 	C 	0.57995	0.1599	0.3258	0.368
Mof_C 	C 	0.5581	0.1162	0.3813	-0.065
Mof_C 	C 	0.50575	0.0115	0.469	-0.021
Mof_C 	C 	0.55025	0.1005	0.372	-0.004
Mof_C 	C 	0.1599	0.57995	0.8258	0.368
Mof_C 	C 	0.1162	0.5581	0.8813	-0.065
Mof_C 	C 	0.0115	0.50575	0.969	-0.021
Mof_C 	C 	0.1005	0.55025	0.872	-0.004
Mof_C 	C 	0.42005	0.57995	0.8258	0.368
Mof_C 	C 	0.4419	0.5581	0.8813	-0.065
Mof_C 	C 	0.49425	0.50575	0.969	-0.021
Mof_C 	C 	0.44975	0.55025	0.872	-0.004
Mof_C 	C 	0.42005	0.8401	0.8258	0.368
Mof_C 	C 	0.4419	0.8838	0.8813	-0.065
Mof_C 	C 	0.49425	0.9885	0.969	-0.021
Mof_C 	C 	0.44975	0.8995	0.872	-0.004
Mof_C 	C 	0.42005	0.8401	0.6742	0.368
Mof_C 	C 	0.4419	0.8838	0.6187	-0.065
Mof_C 	C 	0.49425	0.9885	0.531	-0.021
Mof_C 	C 	0.44975	0.8995	0.628	-0.004
Mof_C 	C 	0.42005	0.57995	0.6742	0.368
Mof_C 	C 	0.4419	0.5581	0.6187	-0.065
Mof_C 	C 	0.49425	0.50575	0.531	-0.021
Mof_C 	C 	0.44975	0.55025	0.628	-0.004
Mof_C 	C 	0.1599	0.57995	0.6742	0.368
Mof_C 	C 	0.1162	0.5581	0.6187	-0.065
Mof_C 	C 	0.0115	0.50575	0.531	-0.021
Mof_C 	C 	0.1005	0.55025	0.628	-0.004
Mof_C 	C 	0.57995	0.1599	0.1742	0.368
Mof_C 	C 	0.5581	0.1162	0.1187	-0.065
Mof_C 	C 	0.50575	0.0115	0.031	-0.021
Mof_C 	C 	0.55025	0.1005	0.128	-0.004
Mof_C 	C 	0.57995	0.42005	0.1742	0.368
Mof_C 	C 	0.5581	0.4419	0.1187	-0.065
Mof_C 	C 	0.50575	0.49425	0.031	-0.021
Mof_C 	C 	0.55025	0.44975	0.128	-0.004
Mof_C 	C 	0.8401	0.42005	0.1742	0.368
Mof_C 	C 	0.8838	0.4419	0.1187	-0.065
Mof_C 	C 	0.9885	0.49425	0.031	-0.021
Mof_C 	C 	0.8995	0.44975	0.128	-0.004
Mof_C 	C 	0.9016	0.2359	0.25	0.075
Mof_H 	H 	0.9333	0.2997	0.25	0.01
Mof_C 	C 	0.9507	0.1907	0.25	-0.129
Mof_H 	H 	0.0145	0.2235	0.25	0.082
Mof_C 	C 	0.7641	0.6657	0.25	0.076
Mof_H 	H 	0.7003	0.6336	0.25	0.01
Mof_C 	C 	0.8093	0.76	0.25	-0.13
Mof_H 	H 	0.7765	0.791	0.25	0.082
Mof_C 	C 	0.3343	0.0984	0.25	0.075
Mof_H 	H 	0.3664	0.0667	0.25	0.01
Mof_C 	C 	0.24	0.0493	0.25	-0.129
Mof_H 	H 	0.209	0.9855	0.25	0.082
Mof_C 	C 	0.0984	0.7641	0.75	0.075
Mof_H 	H 	0.0667	0.7003	0.75	0.01
Mof_C 	C 	0.0493	0.8093	0.75	-0.129
Mof_H 	H 	0.9855	0.7765	0.75	0.082
Mof_C 	C 	0.2359	0.3343	0.75	0.076
Mof_H 	H 	0.2997	0.3664	0.75	0.01
Mof_C 	C 	0.1907	0.24	0.75	-0.13
Mof_H 	H 	0.2235	0.209	0.75	0.082
Mof_C 	C 	0.6657	0.9016	0.75	0.075
Mof_H 	H 	0.6336	0.9333	0.75	0.01
Mof_C 	C 	0.76	0.9507	0.75	-0.129
Mof_H 	H 	0.791	0.0145	0.75	0.082
Mof_C 	C 	0.2359	0.9016	0.75	0.075
Mof_H 	H 	0.2997	0.9333	0.75	0.01
Mof_C 	C 	0.1907	0.9507	0.75	-0.129
Mof_H 	H 	0.2235	0.0145	0.75	0.082
Mof_C 	C 	0.6657	0.7641	0.75	0.076
Mof_H 	H 	0.6336	0.7003	0.75	0.01
Mof_C 	C 	0.76	0.8093	0.75	-0.13
Mof_H 	H 	0.791	0.7765	0.75	0.082
Mof_C 	C 	0.0984	0.3343	0.75	0.075
Mof_H 	H 	0.0667	0.3664	0.75	0.01
Mof_C 	C 	0.0493	0.24	0.75	-0.129
Mof_H 	H 	0.9855	0.209	0.75	0.082
Mof_C 	C 	0.7641	0.0984	0.25	0.075
Mof_H 	H 	0.7003	0.0667	0.25	0.01
Mof_C 	C 	0.8093	0.0493	0.25	-0.129
Mof_H 	H 	0.7765	0.9855	0.25	0.082
Mof_C 	C 	0.3343	0.2359	0.25	0.076
Mof_H 	H 	0.3664	0.2997	0.25	0.01
Mof_C 	C 	0.24	0.1907	0.25	-0.13
Mof_H 	H 	0.209	0.2235	0.25	0.082
Mof_C 	C 	0.9016	0.6657	0.25	0.075
Mof_H 	H 	0.9333	0.6336	0.25	0.01
Mof_C 	C 	0.9507	0.76	0.25	-0.129
Mof_H 	H 	0.0145	0.791	0.25	0.082
_end
