data_functionalizedCrystal
_audit_creation_method	'EQeq! by Chris Wilmer'
_symmetry_space_group_name_H-M	'P1'
_symmetry_Int_Tables_number	1
_symmetry_cell_setting	triclinic
loop_
_symmetry_equiv_pos_as_xyz
  x,y,z
_cell_length_a	18.7626
_cell_length_b	18.7626
_cell_length_c	37.7902
_cell_angle_alpha	90
_cell_angle_beta	90
_cell_angle_gamma	120
loop_
_atom_site_label
_atom_site_type_symbol
_atom_site_fract_x
_atom_site_fract_y
_atom_site_fract_z
_atom_site_charge
Mof_O 	O 	0.48271	0.37201	0.99562	-0.408
Mof_O 	O 	0.4428	0.41015	0.04434	-0.411
Mof_C 	C 	0.4541	0.3606	0.02649	0.36
Mof_C 	C 	0.4331	0.2806	0.04408	-0.085
Mof_C 	C 	0.4033	0.2652	0.07876	-0.021
Mof_H 	H 	0.3931	0.303	0.0903	0.055
Mof_C 	C 	0.4017	0.1478	0.157	0.193
Mof_H 	H 	0.438	0.128	0.1494	-0.031
Mof_C 	C 	0.3794	0.1369	0.1923	0.179
Mof_H 	H 	0.401	0.11	0.2065	-0.029
Mof_N 	N 	0.3035	0.2069	0.1819	-0.158
Mof_N 	N 	0.3249	0.2171	0.1469	-0.157
Mof_O 	O 	0.14938	0.70534	0.32895	-0.408
Mof_O 	O 	0.10947	0.74348	0.37767	-0.411
Mof_C 	C 	0.12077	0.69393	0.35982	0.36
Mof_C 	C 	0.09977	0.61393	0.37741	-0.085
Mof_C 	C 	0.06997	0.59853	0.41209	-0.02
Mof_H 	H 	0.05977	0.63633	0.42363	0.056
Mof_C 	C 	0.06837	0.48113	0.49033	0.194
Mof_H 	H 	0.10467	0.46133	0.48273	-0.03
Mof_C 	C 	0.04607	0.47023	0.52563	0.18
Mof_H 	H 	0.06767	0.44333	0.53983	-0.028
Mof_N 	N 	0.97017	0.54023	0.51523	-0.157
Mof_N 	N 	0.99157	0.55043	0.48023	-0.156
Mof_O 	O 	0.81604	0.03868	0.66229	-0.407
Mof_O 	O 	0.77613	0.07682	0.71101	-0.41
Mof_C 	C 	0.78743	0.02727	0.69316	0.36
Mof_C 	C 	0.76643	0.94727	0.71075	-0.084
Mof_C 	C 	0.73663	0.93187	0.74543	-0.02
Mof_H 	H 	0.72643	0.96967	0.75697	0.056
Mof_C 	C 	0.73503	0.81447	0.82367	0.194
Mof_H 	H 	0.77133	0.79467	0.81607	-0.03
Mof_C 	C 	0.71273	0.80357	0.85897	0.181
Mof_H 	H 	0.73433	0.77667	0.87317	-0.028
Mof_N 	N 	0.63683	0.87357	0.84857	-0.157
Mof_N 	N 	0.65823	0.88377	0.81357	-0.156
Mof_O 	O 	0.62799	0.1107	0.99562	-0.407
Mof_O 	O 	0.58985	0.03265	0.04434	-0.41
Mof_C 	C 	0.6394	0.0935	0.02649	0.361
Mof_C 	C 	0.7194	0.1525	0.04408	-0.084
Mof_C 	C 	0.7348	0.1381	0.07876	-0.02
Mof_H 	H 	0.697	0.0901	0.0903	0.056
Mof_C 	C 	0.8522	0.2539	0.157	0.194
Mof_H 	H 	0.872	0.31	0.1494	-0.03
Mof_C 	C 	0.8631	0.2425	0.1923	0.18
Mof_H 	H 	0.89	0.291	0.2065	-0.028
Mof_N 	N 	0.7931	0.0966	0.1819	-0.157
Mof_N 	N 	0.7829	0.1078	0.1469	-0.156
Mof_O 	O 	0.29466	0.44403	0.32895	-0.407
Mof_O 	O 	0.25652	0.36598	0.37767	-0.41
Mof_C 	C 	0.30607	0.42683	0.35982	0.361
Mof_C 	C 	0.38607	0.48583	0.37741	-0.084
Mof_C 	C 	0.40147	0.47143	0.41209	-0.02
Mof_H 	H 	0.36367	0.42343	0.42363	0.056
Mof_C 	C 	0.51887	0.58723	0.49033	0.194
Mof_H 	H 	0.53867	0.64333	0.48273	-0.03
Mof_C 	C 	0.52977	0.57583	0.52563	0.181
Mof_H 	H 	0.55667	0.62433	0.53983	-0.028
Mof_N 	N 	0.45977	0.42993	0.51523	-0.158
Mof_N 	N 	0.44957	0.44113	0.48023	-0.156
Mof_O 	O 	0.96132	0.77737	0.66229	-0.407
Mof_O 	O 	0.92318	0.69932	0.71101	-0.41
Mof_C 	C 	0.97273	0.76017	0.69316	0.361
Mof_C 	C 	0.05273	0.81917	0.71075	-0.084
Mof_C 	C 	0.06813	0.80477	0.74543	-0.02
Mof_H 	H 	0.03033	0.75677	0.75697	0.056
Mof_C 	C 	0.18553	0.92057	0.82367	0.194
Mof_H 	H 	0.20533	0.97667	0.81607	-0.03
Mof_C 	C 	0.19643	0.90917	0.85897	0.18
Mof_H 	H 	0.22333	0.95767	0.87317	-0.028
Mof_N 	N 	0.12643	0.76327	0.84857	-0.157
Mof_N 	N 	0.11623	0.77447	0.81357	-0.156
Mof_O 	O 	0.8893	0.51729	0.99562	-0.407
Mof_O 	O 	0.96735	0.5572	0.04434	-0.41
Mof_C 	C 	0.9065	0.5459	0.02649	0.361
Mof_C 	C 	0.8475	0.5669	0.04408	-0.084
Mof_C 	C 	0.8619	0.5967	0.07876	-0.02
Mof_H 	H 	0.9099	0.6069	0.0903	0.056
Mof_C 	C 	0.7461	0.5983	0.157	0.194
Mof_H 	H 	0.69	0.562	0.1494	-0.03
Mof_C 	C 	0.7575	0.6206	0.1923	0.18
Mof_H 	H 	0.709	0.599	0.2065	-0.028
Mof_N 	N 	0.9034	0.6965	0.1819	-0.157
Mof_N 	N 	0.8922	0.6751	0.1469	-0.156
Mof_O 	O 	0.55597	0.85062	0.32895	-0.407
Mof_O 	O 	0.63402	0.89053	0.37767	-0.41
Mof_C 	C 	0.57317	0.87923	0.35982	0.361
Mof_C 	C 	0.51417	0.90023	0.37741	-0.084
Mof_C 	C 	0.52857	0.93003	0.41209	-0.02
Mof_H 	H 	0.57657	0.94023	0.42363	0.056
Mof_C 	C 	0.41277	0.93163	0.49033	0.194
Mof_H 	H 	0.35667	0.89533	0.48273	-0.03
Mof_C 	C 	0.42417	0.95393	0.52563	0.18
Mof_H 	H 	0.37567	0.93233	0.53983	-0.028
Mof_N 	N 	0.57007	0.02983	0.51523	-0.157
Mof_N 	N 	0.55887	0.00843	0.48023	-0.156
Mof_O 	O 	0.22263	0.18396	0.66229	-0.407
Mof_O 	O 	0.30068	0.22387	0.71101	-0.41
Mof_C 	C 	0.23983	0.21257	0.69316	0.361
Mof_C 	C 	0.18083	0.23357	0.71075	-0.084
Mof_C 	C 	0.19523	0.26337	0.74543	-0.02
Mof_H 	H 	0.24323	0.27357	0.75697	0.056
Mof_C 	C 	0.07943	0.26497	0.82367	0.194
Mof_H 	H 	0.02333	0.22867	0.81607	-0.03
Mof_C 	C 	0.09083	0.28727	0.85897	0.18
Mof_H 	H 	0.04233	0.26567	0.87317	-0.028
Mof_N 	N 	0.23673	0.36317	0.84857	-0.157
Mof_N 	N 	0.22553	0.34177	0.81357	-0.156
Mof_O 	O 	0.37201	0.48271	0.00438	-0.407
Mof_O 	O 	0.41015	0.4428	0.95566	-0.41
Mof_C 	C 	0.3606	0.4541	0.97351	0.361
Mof_C 	C 	0.2806	0.4331	0.95592	-0.084
Mof_C 	C 	0.2652	0.4033	0.92124	-0.02
Mof_H 	H 	0.303	0.3931	0.9097	0.056
Mof_C 	C 	0.1478	0.4017	0.843	0.194
Mof_H 	H 	0.128	0.438	0.8506	-0.03
Mof_C 	C 	0.1369	0.3794	0.8077	0.18
Mof_H 	H 	0.11	0.401	0.7935	-0.028
Mof_N 	N 	0.2069	0.3035	0.8181	-0.157
Mof_N 	N 	0.2171	0.3249	0.8531	-0.156
Mof_O 	O 	0.03868	0.81604	0.33771	-0.407
Mof_O 	O 	0.07682	0.77613	0.28899	-0.41
Mof_C 	C 	0.02727	0.78743	0.30684	0.36
Mof_C 	C 	0.94727	0.76643	0.28925	-0.084
Mof_C 	C 	0.93187	0.73663	0.25457	-0.02
Mof_H 	H 	0.96967	0.72643	0.24303	0.056
Mof_C 	C 	0.81447	0.73503	0.17633	0.194
Mof_H 	H 	0.79467	0.77133	0.18393	-0.03
Mof_C 	C 	0.80357	0.71273	0.14103	0.181
Mof_H 	H 	0.77667	0.73433	0.12683	-0.028
Mof_N 	N 	0.87357	0.63683	0.15143	-0.157
Mof_N 	N 	0.88377	0.65823	0.18643	-0.156
Mof_O 	O 	0.70534	0.14938	0.67105	-0.407
Mof_O 	O 	0.74348	0.10947	0.62233	-0.41
Mof_C 	C 	0.69393	0.12077	0.64018	0.361
Mof_C 	C 	0.61393	0.09977	0.62259	-0.084
Mof_C 	C 	0.59853	0.06997	0.58791	-0.02
Mof_H 	H 	0.63633	0.05977	0.57637	0.056
Mof_C 	C 	0.48113	0.06837	0.50967	0.194
Mof_H 	H 	0.46133	0.10467	0.51727	-0.03
Mof_C 	C 	0.47023	0.04607	0.47437	0.18
Mof_H 	H 	0.44333	0.06767	0.46017	-0.028
Mof_N 	N 	0.54023	0.97017	0.48477	-0.157
Mof_N 	N 	0.55043	0.99157	0.51977	-0.156
Mof_O 	O 	0.1107	0.62799	0.00438	-0.407
Mof_O 	O 	0.03265	0.58985	0.95566	-0.41
Mof_C 	C 	0.0935	0.6394	0.97351	0.361
Mof_C 	C 	0.1525	0.7194	0.95592	-0.084
Mof_C 	C 	0.1381	0.7348	0.92124	-0.02
Mof_H 	H 	0.0901	0.697	0.9097	0.056
Mof_C 	C 	0.2539	0.8522	0.843	0.194
Mof_H 	H 	0.31	0.872	0.8506	-0.03
Mof_C 	C 	0.2425	0.8631	0.8077	0.18
Mof_H 	H 	0.291	0.89	0.7935	-0.028
Mof_N 	N 	0.0966	0.7931	0.8181	-0.157
Mof_N 	N 	0.1078	0.7829	0.8531	-0.156
Mof_O 	O 	0.77737	0.96132	0.33771	-0.407
Mof_O 	O 	0.69932	0.92318	0.28899	-0.41
Mof_C 	C 	0.76017	0.97273	0.30684	0.361
Mof_C 	C 	0.81917	0.05273	0.28925	-0.084
Mof_C 	C 	0.80477	0.06813	0.25457	-0.02
Mof_H 	H 	0.75677	0.03033	0.24303	0.056
Mof_C 	C 	0.92057	0.18553	0.17633	0.194
Mof_H 	H 	0.97667	0.20533	0.18393	-0.03
Mof_C 	C 	0.90917	0.19643	0.14103	0.18
Mof_H 	H 	0.95767	0.22333	0.12683	-0.028
Mof_N 	N 	0.76327	0.12643	0.15143	-0.157
Mof_N 	N 	0.77447	0.11623	0.18643	-0.156
Mof_O 	O 	0.44403	0.29466	0.67105	-0.407
Mof_O 	O 	0.36598	0.25652	0.62233	-0.41
Mof_C 	C 	0.42683	0.30607	0.64018	0.361
Mof_C 	C 	0.48583	0.38607	0.62259	-0.084
Mof_C 	C 	0.47143	0.40147	0.58791	-0.02
Mof_H 	H 	0.42343	0.36367	0.57637	0.056
Mof_C 	C 	0.58723	0.51887	0.50967	0.194
Mof_H 	H 	0.64333	0.53867	0.51727	-0.03
Mof_C 	C 	0.57583	0.52977	0.47437	0.181
Mof_H 	H 	0.62433	0.55667	0.46017	-0.028
Mof_N 	N 	0.42993	0.45977	0.48477	-0.158
Mof_N 	N 	0.44113	0.44957	0.51977	-0.156
Mof_O 	O 	0.51729	0.8893	0.00438	-0.407
Mof_O 	O 	0.5572	0.96735	0.95566	-0.41
Mof_C 	C 	0.5459	0.9065	0.97351	0.361
Mof_C 	C 	0.5669	0.8475	0.95592	-0.084
Mof_C 	C 	0.5967	0.8619	0.92124	-0.02
Mof_H 	H 	0.6069	0.9099	0.9097	0.056
Mof_C 	C 	0.5983	0.7461	0.843	0.194
Mof_H 	H 	0.562	0.69	0.8506	-0.03
Mof_C 	C 	0.6206	0.7575	0.8077	0.18
Mof_H 	H 	0.599	0.709	0.7935	-0.028
Mof_N 	N 	0.6965	0.9034	0.8181	-0.157
Mof_N 	N 	0.6751	0.8922	0.8531	-0.156
Mof_O 	O 	0.18396	0.22263	0.33771	-0.407
Mof_O 	O 	0.22387	0.30068	0.28899	-0.41
Mof_C 	C 	0.21257	0.23983	0.30684	0.361
Mof_C 	C 	0.23357	0.18083	0.28925	-0.084
Mof_C 	C 	0.26337	0.19523	0.25457	-0.02
Mof_H 	H 	0.27357	0.24323	0.24303	0.056
Mof_C 	C 	0.26497	0.07943	0.17633	0.194
Mof_H 	H 	0.22867	0.02333	0.18393	-0.03
Mof_C 	C 	0.28727	0.09083	0.14103	0.18
Mof_H 	H 	0.26567	0.04233	0.12683	-0.028
Mof_N 	N 	0.36317	0.23673	0.15143	-0.157
Mof_N 	N 	0.34177	0.22553	0.18643	-0.156
Mof_O 	O 	0.85062	0.55597	0.67105	-0.407
Mof_O 	O 	0.89053	0.63402	0.62233	-0.41
Mof_C 	C 	0.87923	0.57317	0.64018	0.361
Mof_C 	C 	0.90023	0.51417	0.62259	-0.084
Mof_C 	C 	0.93003	0.52857	0.58791	-0.02
Mof_H 	H 	0.94023	0.57657	0.57637	0.056
Mof_C 	C 	0.93163	0.41277	0.50967	0.194
Mof_H 	H 	0.89533	0.35667	0.51727	-0.03
Mof_C 	C 	0.95393	0.42417	0.47437	0.18
Mof_H 	H 	0.93233	0.37567	0.46017	-0.028
Mof_N 	N 	0.02983	0.57007	0.48477	-0.157
Mof_N 	N 	0.00843	0.55887	0.51977	-0.156
Mof_O 	O 	0.51729	0.62799	0.00438	-0.407
Mof_O 	O 	0.5572	0.58985	0.95566	-0.41
Mof_C 	C 	0.5459	0.6394	0.97351	0.361
Mof_C 	C 	0.5669	0.7194	0.95592	-0.084
Mof_C 	C 	0.5967	0.7348	0.92124	-0.02
Mof_H 	H 	0.6069	0.697	0.9097	0.056
Mof_C 	C 	0.5983	0.8522	0.843	0.194
Mof_H 	H 	0.562	0.872	0.8506	-0.03
Mof_C 	C 	0.6206	0.8631	0.8077	0.18
Mof_H 	H 	0.599	0.89	0.7935	-0.028
Mof_N 	N 	0.6965	0.7931	0.8181	-0.157
Mof_N 	N 	0.6751	0.7829	0.8531	-0.156
Mof_O 	O 	0.18396	0.96132	0.33771	-0.407
Mof_O 	O 	0.22387	0.92318	0.28899	-0.41
Mof_C 	C 	0.21257	0.97273	0.30684	0.36
Mof_C 	C 	0.23357	0.05273	0.28925	-0.084
Mof_C 	C 	0.26337	0.06813	0.25457	-0.02
Mof_H 	H 	0.27357	0.03033	0.24303	0.056
Mof_C 	C 	0.26497	0.18553	0.17633	0.194
Mof_H 	H 	0.22867	0.20533	0.18393	-0.03
Mof_C 	C 	0.28727	0.19643	0.14103	0.181
Mof_H 	H 	0.26567	0.22333	0.12683	-0.028
Mof_N 	N 	0.36317	0.12643	0.15143	-0.157
Mof_N 	N 	0.34177	0.11623	0.18643	-0.156
Mof_O 	O 	0.85062	0.29466	0.67105	-0.407
Mof_O 	O 	0.89053	0.25652	0.62233	-0.41
Mof_C 	C 	0.87923	0.30607	0.64018	0.361
Mof_C 	C 	0.90023	0.38607	0.62259	-0.084
Mof_C 	C 	0.93003	0.40147	0.58791	-0.02
Mof_H 	H 	0.94023	0.36367	0.57637	0.056
Mof_C 	C 	0.93163	0.51887	0.50967	0.194
Mof_H 	H 	0.89533	0.53867	0.51727	-0.03
Mof_C 	C 	0.95393	0.52977	0.47437	0.18
Mof_H 	H 	0.93233	0.55667	0.46017	-0.028
Mof_N 	N 	0.02983	0.45977	0.48477	-0.157
Mof_N 	N 	0.00843	0.44957	0.51977	-0.156
Mof_O 	O 	0.37201	0.8893	0.00438	-0.407
Mof_O 	O 	0.41015	0.96735	0.95566	-0.41
Mof_C 	C 	0.3606	0.9065	0.97351	0.361
Mof_C 	C 	0.2806	0.8475	0.95592	-0.084
Mof_C 	C 	0.2652	0.8619	0.92124	-0.02
Mof_H 	H 	0.303	0.9099	0.9097	0.056
Mof_C 	C 	0.1478	0.7461	0.843	0.194
Mof_H 	H 	0.128	0.69	0.8506	-0.03
Mof_C 	C 	0.1369	0.7575	0.8077	0.18
Mof_H 	H 	0.11	0.709	0.7935	-0.028
Mof_N 	N 	0.2069	0.9034	0.8181	-0.157
Mof_N 	N 	0.2171	0.8922	0.8531	-0.156
Mof_O 	O 	0.03868	0.22263	0.33771	-0.407
Mof_O 	O 	0.07682	0.30068	0.28899	-0.41
Mof_C 	C 	0.02727	0.23983	0.30684	0.361
Mof_C 	C 	0.94727	0.18083	0.28925	-0.084
Mof_C 	C 	0.93187	0.19523	0.25457	-0.02
Mof_H 	H 	0.96967	0.24323	0.24303	0.056
Mof_C 	C 	0.81447	0.07943	0.17633	0.194
Mof_H 	H 	0.79467	0.02333	0.18393	-0.03
Mof_C 	C 	0.80357	0.09083	0.14103	0.18
Mof_H 	H 	0.77667	0.04233	0.12683	-0.028
Mof_N 	N 	0.87357	0.23673	0.15143	-0.157
Mof_N 	N 	0.88377	0.22553	0.18643	-0.156
Mof_O 	O 	0.70534	0.55597	0.67105	-0.407
Mof_O 	O 	0.74348	0.63402	0.62233	-0.41
Mof_C 	C 	0.69393	0.57317	0.64018	0.361
Mof_C 	C 	0.61393	0.51417	0.62259	-0.084
Mof_C 	C 	0.59853	0.52857	0.58791	-0.02
Mof_H 	H 	0.63633	0.57657	0.57637	0.056
Mof_C 	C 	0.48113	0.41277	0.50967	0.194
Mof_H 	H 	0.46133	0.35667	0.51727	-0.03
Mof_C 	C 	0.47023	0.42417	0.47437	0.181
Mof_H 	H 	0.44333	0.37567	0.46017	-0.028
Mof_N 	N 	0.54023	0.57007	0.48477	-0.158
Mof_N 	N 	0.55043	0.55887	0.51977	-0.156
Mof_O 	O 	0.1107	0.48271	0.00438	-0.407
Mof_O 	O 	0.03265	0.4428	0.95566	-0.41
Mof_C 	C 	0.0935	0.4541	0.97351	0.361
Mof_C 	C 	0.1525	0.4331	0.95592	-0.084
Mof_C 	C 	0.1381	0.4033	0.92124	-0.02
Mof_H 	H 	0.0901	0.3931	0.9097	0.056
Mof_C 	C 	0.2539	0.4017	0.843	0.194
Mof_H 	H 	0.31	0.438	0.8506	-0.03
Mof_C 	C 	0.2425	0.3794	0.8077	0.18
Mof_H 	H 	0.291	0.401	0.7935	-0.028
Mof_N 	N 	0.0966	0.3035	0.8181	-0.157
Mof_N 	N 	0.1078	0.3249	0.8531	-0.156
Mof_O 	O 	0.77737	0.81604	0.33771	-0.407
Mof_O 	O 	0.69932	0.77613	0.28899	-0.41
Mof_C 	C 	0.76017	0.78743	0.30684	0.361
Mof_C 	C 	0.81917	0.76643	0.28925	-0.084
Mof_C 	C 	0.80477	0.73663	0.25457	-0.02
Mof_H 	H 	0.75677	0.72643	0.24303	0.056
Mof_C 	C 	0.92057	0.73503	0.17633	0.194
Mof_H 	H 	0.97667	0.77133	0.18393	-0.03
Mof_C 	C 	0.90917	0.71273	0.14103	0.18
Mof_H 	H 	0.95767	0.73433	0.12683	-0.028
Mof_N 	N 	0.76327	0.63683	0.15143	-0.157
Mof_N 	N 	0.77447	0.65823	0.18643	-0.156
Mof_O 	O 	0.44403	0.14938	0.67105	-0.407
Mof_O 	O 	0.36598	0.10947	0.62233	-0.41
Mof_C 	C 	0.42683	0.12077	0.64018	0.361
Mof_C 	C 	0.48583	0.09977	0.62259	-0.084
Mof_C 	C 	0.47143	0.06997	0.58791	-0.02
Mof_H 	H 	0.42343	0.05977	0.57637	0.056
Mof_C 	C 	0.58723	0.06837	0.50967	0.194
Mof_H 	H 	0.64333	0.10467	0.51727	-0.03
Mof_C 	C 	0.57583	0.04607	0.47437	0.18
Mof_H 	H 	0.62433	0.06767	0.46017	-0.028
Mof_N 	N 	0.42993	0.97017	0.48477	-0.157
Mof_N 	N 	0.44113	0.99157	0.51977	-0.156
Mof_O 	O 	0.62799	0.51729	0.99562	-0.407
Mof_O 	O 	0.58985	0.5572	0.04434	-0.41
Mof_C 	C 	0.6394	0.5459	0.02649	0.361
Mof_C 	C 	0.7194	0.5669	0.04408	-0.084
Mof_C 	C 	0.7348	0.5967	0.07876	-0.02
Mof_H 	H 	0.697	0.6069	0.0903	0.056
Mof_C 	C 	0.8522	0.5983	0.157	0.194
Mof_H 	H 	0.872	0.562	0.1494	-0.03
Mof_C 	C 	0.8631	0.6206	0.1923	0.18
Mof_H 	H 	0.89	0.599	0.2065	-0.028
Mof_N 	N 	0.7931	0.6965	0.1819	-0.157
Mof_N 	N 	0.7829	0.6751	0.1469	-0.156
Mof_O 	O 	0.29466	0.85062	0.32895	-0.407
Mof_O 	O 	0.25652	0.89053	0.37767	-0.41
Mof_C 	C 	0.30607	0.87923	0.35982	0.361
Mof_C 	C 	0.38607	0.90023	0.37741	-0.084
Mof_C 	C 	0.40147	0.93003	0.41209	-0.02
Mof_H 	H 	0.36367	0.94023	0.42363	0.056
Mof_C 	C 	0.51887	0.93163	0.49033	0.194
Mof_H 	H 	0.53867	0.89533	0.48273	-0.03
Mof_C 	C 	0.52977	0.95393	0.52563	0.18
Mof_H 	H 	0.55667	0.93233	0.53983	-0.028
Mof_N 	N 	0.45977	0.02983	0.51523	-0.157
Mof_N 	N 	0.44957	0.00843	0.48023	-0.156
Mof_O 	O 	0.96132	0.18396	0.66229	-0.407
Mof_O 	O 	0.92318	0.22387	0.71101	-0.41
Mof_C 	C 	0.97273	0.21257	0.69316	0.36
Mof_C 	C 	0.05273	0.23357	0.71075	-0.084
Mof_C 	C 	0.06813	0.26337	0.74543	-0.02
Mof_H 	H 	0.03033	0.27357	0.75697	0.056
Mof_C 	C 	0.18553	0.26497	0.82367	0.194
Mof_H 	H 	0.20533	0.22867	0.81607	-0.03
Mof_C 	C 	0.19643	0.28727	0.85897	0.181
Mof_H 	H 	0.22333	0.26567	0.87317	-0.028
Mof_N 	N 	0.12643	0.36317	0.84857	-0.157
Mof_N 	N 	0.11623	0.34177	0.81357	-0.156
Mof_O 	O 	0.8893	0.37201	0.99562	-0.407
Mof_O 	O 	0.96735	0.41015	0.04434	-0.41
Mof_C 	C 	0.9065	0.3606	0.02649	0.361
Mof_C 	C 	0.8475	0.2806	0.04408	-0.084
Mof_C 	C 	0.8619	0.2652	0.07876	-0.02
Mof_H 	H 	0.9099	0.303	0.0903	0.056
Mof_C 	C 	0.7461	0.1478	0.157	0.194
Mof_H 	H 	0.69	0.128	0.1494	-0.03
Mof_C 	C 	0.7575	0.1369	0.1923	0.18
Mof_H 	H 	0.709	0.11	0.2065	-0.028
Mof_N 	N 	0.9034	0.2069	0.1819	-0.157
Mof_N 	N 	0.8922	0.2171	0.1469	-0.156
Mof_O 	O 	0.55597	0.70534	0.32895	-0.407
Mof_O 	O 	0.63402	0.74348	0.37767	-0.41
Mof_C 	C 	0.57317	0.69393	0.35982	0.361
Mof_C 	C 	0.51417	0.61393	0.37741	-0.084
Mof_C 	C 	0.52857	0.59853	0.41209	-0.02
Mof_H 	H 	0.57657	0.63633	0.42363	0.056
Mof_C 	C 	0.41277	0.48113	0.49033	0.194
Mof_H 	H 	0.35667	0.46133	0.48273	-0.03
Mof_C 	C 	0.42417	0.47023	0.52563	0.181
Mof_H 	H 	0.37567	0.44333	0.53983	-0.028
Mof_N 	N 	0.57007	0.54023	0.51523	-0.158
Mof_N 	N 	0.55887	0.55043	0.48023	-0.156
Mof_O 	O 	0.22263	0.03868	0.66229	-0.407
Mof_O 	O 	0.30068	0.07682	0.71101	-0.41
Mof_C 	C 	0.23983	0.02727	0.69316	0.361
Mof_C 	C 	0.18083	0.94727	0.71075	-0.084
Mof_C 	C 	0.19523	0.93187	0.74543	-0.02
Mof_H 	H 	0.24323	0.96967	0.75697	0.056
Mof_C 	C 	0.07943	0.81447	0.82367	0.194
Mof_H 	H 	0.02333	0.79467	0.81607	-0.03
Mof_C 	C 	0.09083	0.80357	0.85897	0.18
Mof_H 	H 	0.04233	0.77667	0.87317	-0.028
Mof_N 	N 	0.23673	0.87357	0.84857	-0.157
Mof_N 	N 	0.22553	0.88377	0.81357	-0.156
Mof_O 	O 	0.48271	0.1107	0.99562	-0.407
Mof_O 	O 	0.4428	0.03265	0.04434	-0.41
Mof_C 	C 	0.4541	0.0935	0.02649	0.361
Mof_C 	C 	0.4331	0.1525	0.04408	-0.084
Mof_C 	C 	0.4033	0.1381	0.07876	-0.02
Mof_H 	H 	0.3931	0.0901	0.0903	0.056
Mof_C 	C 	0.4017	0.2539	0.157	0.194
Mof_H 	H 	0.438	0.31	0.1494	-0.03
Mof_C 	C 	0.3794	0.2425	0.1923	0.18
Mof_H 	H 	0.401	0.291	0.2065	-0.028
Mof_N 	N 	0.3035	0.0966	0.1819	-0.157
Mof_N 	N 	0.3249	0.1078	0.1469	-0.156
Mof_O 	O 	0.14938	0.44403	0.32895	-0.407
Mof_O 	O 	0.10947	0.36598	0.37767	-0.41
Mof_C 	C 	0.12077	0.42683	0.35982	0.361
Mof_C 	C 	0.09977	0.48583	0.37741	-0.084
Mof_C 	C 	0.06997	0.47143	0.41209	-0.02
Mof_H 	H 	0.05977	0.42343	0.42363	0.056
Mof_C 	C 	0.06837	0.58723	0.49033	0.194
Mof_H 	H 	0.10467	0.64333	0.48273	-0.03
Mof_C 	C 	0.04607	0.57583	0.52563	0.18
Mof_H 	H 	0.06767	0.62433	0.53983	-0.028
Mof_N 	N 	0.97017	0.42993	0.51523	-0.157
Mof_N 	N 	0.99157	0.44113	0.48023	-0.156
Mof_O 	O 	0.81604	0.77737	0.66229	-0.407
Mof_O 	O 	0.77613	0.69932	0.71101	-0.41
Mof_C 	C 	0.78743	0.76017	0.69316	0.361
Mof_C 	C 	0.76643	0.81917	0.71075	-0.084
Mof_C 	C 	0.73663	0.80477	0.74543	-0.02
Mof_H 	H 	0.72643	0.75677	0.75697	0.056
Mof_C 	C 	0.73503	0.92057	0.82367	0.194
Mof_H 	H 	0.77133	0.97667	0.81607	-0.03
Mof_C 	C 	0.71273	0.90917	0.85897	0.18
Mof_H 	H 	0.73433	0.95767	0.87317	-0.028
Mof_N 	N 	0.63683	0.76327	0.84857	-0.157
Mof_N 	N 	0.65823	0.77447	0.81357	-0.156
Mof_Cu	Cu	0.52309	0.47691	0.97097	0.904
Mof_Cu	Cu	0.18975	0.81025	0.3043	0.904
Mof_Cu	Cu	0.85642	0.14358	0.63763	0.904
Mof_Cu	Cu	0.52309	0.04618	0.97097	0.904
Mof_Cu	Cu	0.18975	0.37951	0.3043	0.904
Mof_Cu	Cu	0.85642	0.71284	0.63763	0.904
Mof_Cu	Cu	0.95382	0.47691	0.97097	0.904
Mof_Cu	Cu	0.62049	0.81025	0.3043	0.904
Mof_Cu	Cu	0.28716	0.14358	0.63763	0.904
Mof_Cu	Cu	0.47691	0.52309	0.02903	0.904
Mof_Cu	Cu	0.14358	0.85642	0.36237	0.904
Mof_Cu	Cu	0.81025	0.18975	0.6957	0.904
Mof_Cu	Cu	0.04618	0.52309	0.02903	0.904
Mof_Cu	Cu	0.71284	0.85642	0.36237	0.904
Mof_Cu	Cu	0.37951	0.18975	0.6957	0.904
Mof_Cu	Cu	0.47691	0.95382	0.02903	0.904
Mof_Cu	Cu	0.14358	0.28716	0.36237	0.904
Mof_Cu	Cu	0.81025	0.62049	0.6957	0.904
Mof_C 	C 	0.4479	0.22395	0.02686	0.024
Mof_H 	H 	0.4679	0.23395	0.0038	0.052
Mof_C 	C 	0.3888	0.1944	0.09612	-0.011
Mof_C 	C 	0.3734	0.1867	0.135	0.019
Mof_C 	C 	0.326	0.163	0.2036	0.015
Mof_C 	C 	0.11457	0.55728	0.36019	0.024
Mof_H 	H 	0.13457	0.56728	0.33713	0.052
Mof_C 	C 	0.05547	0.52773	0.42945	-0.011
Mof_C 	C 	0.04007	0.52003	0.46833	0.019
Mof_C 	C 	0.99267	0.49633	0.53693	0.015
Mof_C 	C 	0.78123	0.89062	0.69353	0.024
Mof_H 	H 	0.80123	0.90062	0.67047	0.052
Mof_C 	C 	0.72213	0.86107	0.76279	-0.011
Mof_C 	C 	0.70673	0.85337	0.80167	0.019
Mof_C 	C 	0.65933	0.82967	0.87027	0.015
Mof_C 	C 	0.77605	0.22395	0.02686	0.024
Mof_H 	H 	0.76605	0.23395	0.0038	0.052
Mof_C 	C 	0.8056	0.1944	0.09612	-0.011
Mof_C 	C 	0.8133	0.1867	0.135	0.019
Mof_C 	C 	0.837	0.163	0.2036	0.015
Mof_C 	C 	0.44272	0.55728	0.36019	0.024
Mof_H 	H 	0.43272	0.56728	0.33713	0.052
Mof_C 	C 	0.47227	0.52773	0.42945	-0.011
Mof_C 	C 	0.47997	0.52003	0.46833	0.019
Mof_C 	C 	0.50367	0.49633	0.53693	0.014
Mof_C 	C 	0.10938	0.89062	0.69353	0.024
Mof_H 	H 	0.09938	0.90062	0.67047	0.052
Mof_C 	C 	0.13893	0.86107	0.76279	-0.011
Mof_C 	C 	0.14663	0.85337	0.80167	0.019
Mof_C 	C 	0.17033	0.82967	0.87027	0.015
Mof_C 	C 	0.77605	0.5521	0.02686	0.024
Mof_H 	H 	0.76605	0.5321	0.0038	0.052
Mof_C 	C 	0.8056	0.6112	0.09612	-0.011
Mof_C 	C 	0.8133	0.6266	0.135	0.019
Mof_C 	C 	0.837	0.674	0.2036	0.015
Mof_C 	C 	0.44272	0.88543	0.36019	0.024
Mof_H 	H 	0.43272	0.86543	0.33713	0.052
Mof_C 	C 	0.47227	0.94453	0.42945	-0.011
Mof_C 	C 	0.47997	0.95993	0.46833	0.019
Mof_C 	C 	0.50367	0.00733	0.53693	0.015
Mof_C 	C 	0.10938	0.21877	0.69353	0.024
Mof_H 	H 	0.09938	0.19877	0.67047	0.052
Mof_C 	C 	0.13893	0.27787	0.76279	-0.011
Mof_C 	C 	0.14663	0.29327	0.80167	0.019
Mof_C 	C 	0.17033	0.34067	0.87027	0.015
Mof_C 	C 	0.22395	0.4479	0.97314	0.024
Mof_H 	H 	0.23395	0.4679	0.9962	0.052
Mof_C 	C 	0.1944	0.3888	0.90388	-0.011
Mof_C 	C 	0.1867	0.3734	0.865	0.019
Mof_C 	C 	0.163	0.326	0.7964	0.015
Mof_C 	C 	0.89062	0.78123	0.30647	0.024
Mof_H 	H 	0.90062	0.80123	0.32953	0.052
Mof_C 	C 	0.86107	0.72213	0.23721	-0.011
Mof_C 	C 	0.85337	0.70673	0.19833	0.019
Mof_C 	C 	0.82967	0.65933	0.12973	0.015
Mof_C 	C 	0.55728	0.11457	0.63981	0.024
Mof_H 	H 	0.56728	0.13457	0.66287	0.052
Mof_C 	C 	0.52773	0.05547	0.57055	-0.011
Mof_C 	C 	0.52003	0.04007	0.53167	0.019
Mof_C 	C 	0.49633	0.99267	0.46307	0.015
Mof_C 	C 	0.22395	0.77605	0.97314	0.024
Mof_H 	H 	0.23395	0.76605	0.9962	0.052
Mof_C 	C 	0.1944	0.8056	0.90388	-0.011
Mof_C 	C 	0.1867	0.8133	0.865	0.019
Mof_C 	C 	0.163	0.837	0.7964	0.015
Mof_C 	C 	0.89062	0.10938	0.30647	0.024
Mof_H 	H 	0.90062	0.09938	0.32953	0.052
Mof_C 	C 	0.86107	0.13893	0.23721	-0.011
Mof_C 	C 	0.85337	0.14663	0.19833	0.019
Mof_C 	C 	0.82967	0.17033	0.12973	0.015
Mof_C 	C 	0.55728	0.44272	0.63981	0.024
Mof_H 	H 	0.56728	0.43272	0.66287	0.052
Mof_C 	C 	0.52773	0.47227	0.57055	-0.011
Mof_C 	C 	0.52003	0.47997	0.53167	0.019
Mof_C 	C 	0.49633	0.50367	0.46307	0.014
Mof_C 	C 	0.5521	0.77605	0.97314	0.024
Mof_H 	H 	0.5321	0.76605	0.9962	0.052
Mof_C 	C 	0.6112	0.8056	0.90388	-0.011
Mof_C 	C 	0.6266	0.8133	0.865	0.019
Mof_C 	C 	0.674	0.837	0.7964	0.015
Mof_C 	C 	0.21877	0.10938	0.30647	0.024
Mof_H 	H 	0.19877	0.09938	0.32953	0.052
Mof_C 	C 	0.27787	0.13893	0.23721	-0.011
Mof_C 	C 	0.29327	0.14663	0.19833	0.019
Mof_C 	C 	0.34067	0.17033	0.12973	0.015
Mof_C 	C 	0.88543	0.44272	0.63981	0.024
Mof_H 	H 	0.86543	0.43272	0.66287	0.052
Mof_C 	C 	0.94453	0.47227	0.57055	-0.011
Mof_C 	C 	0.95993	0.47997	0.53167	0.019
Mof_C 	C 	0.00733	0.50367	0.46307	0.015
_end
