# CIF file generated by openbabel 2.4.1, see http://openbabel.sf.net
data_I
_chemical_name_common 'image0'
_cell_length_a 15.387
_cell_length_b 15.387
_cell_length_c 9.5846
_cell_angle_alpha 90
_cell_angle_beta 90
_cell_angle_gamma 90
_space_group_name_H-M_alt 'P 1'
_space_group_name_Hall 'P 1'
loop_
    _symmetry_equiv_pos_as_xyz
    x,y,z
loop_
    _atom_site_label
    _atom_site_type_symbol
    _atom_site_fract_x
    _atom_site_fract_y
    _atom_site_fract_z
    _atom_site_occupancy
    C1      C    0.33310   0.23310   0.57700   1.000
    H1      H    0.36280   0.22740   0.48690   1.000
    H2      H    0.37890   0.22470   0.64670   1.000
    C2      C    0.30100   0.17780   0.58280   1.000
    H3      H    0.31890   0.15190   0.67170   1.000
    H4      H    0.32610   0.14100   0.50990   1.000
    O1      O    0.17190   0.14680   0.88610   1.000
    C3      C    0.00730   0.05450   0.11140   1.000
    H5      H    0.01220   0.09210   0.18830   1.000
    C4      C    0.16690   0.26690   0.57700   1.000
    H6      H    0.13720   0.27260   0.48690   1.000
    H7      H    0.12110   0.27530   0.64670   1.000
    C5      C    0.19900   0.32220   0.58280   1.000
    H8      H    0.18110   0.34810   0.67170   1.000
    H9      H    0.17390   0.35900   0.50990   1.000
    O2      O    0.32810   0.35320   0.88610   1.000
    C6      C    0.49270   0.44550   0.11140   1.000
    H10     H    0.48780   0.40790   0.18830   1.000
    C7      C    0.26690   0.33310   0.57700   1.000
    H11     H    0.27260   0.36280   0.48690   1.000
    H12     H    0.27530   0.37890   0.64670   1.000
    C8      C    0.32220   0.30100   0.58280   1.000
    H13     H    0.34810   0.31890   0.67170   1.000
    H14     H    0.35900   0.32610   0.50990   1.000
    O3      O    0.35320   0.17190   0.88610   1.000
    C9      C    0.44550   0.00730   0.11140   1.000
    H15     H    0.40790   0.01220   0.18830   1.000
    C10     C    0.23310   0.16690   0.57700   1.000
    H16     H    0.22740   0.13720   0.48690   1.000
    H17     H    0.22470   0.12110   0.64670   1.000
    C11     C    0.17780   0.19900   0.58280   1.000
    H18     H    0.15190   0.18110   0.67170   1.000
    H19     H    0.14100   0.17390   0.50990   1.000
    O4      O    0.14680   0.32810   0.88610   1.000
    C12     C    0.05450   0.49270   0.11140   1.000
    H20     H    0.09210   0.48780   0.18830   1.000
    C13     C    0.16690   0.23310   0.42300   1.000
    H21     H    0.13720   0.22740   0.51310   1.000
    H22     H    0.12110   0.22470   0.35330   1.000
    C14     C    0.19900   0.17780   0.41720   1.000
    H23     H    0.18110   0.15190   0.32830   1.000
    H24     H    0.17390   0.14100   0.49010   1.000
    O5      O    0.32810   0.14680   0.11390   1.000
    C15     C    0.49270   0.05450   0.88860   1.000
    H25     H    0.48780   0.09210   0.81170   1.000
    C16     C    0.33310   0.26690   0.42300   1.000
    H26     H    0.36280   0.27260   0.51310   1.000
    H27     H    0.37890   0.27530   0.35330   1.000
    C17     C    0.30100   0.32220   0.41720   1.000
    H28     H    0.31890   0.34810   0.32830   1.000
    H29     H    0.32610   0.35900   0.49010   1.000
    O6      O    0.17190   0.35320   0.11390   1.000
    C18     C    0.00730   0.44550   0.88860   1.000
    H30     H    0.01220   0.40790   0.81170   1.000
    C19     C    0.23310   0.33310   0.42300   1.000
    H31     H    0.22740   0.36280   0.51310   1.000
    H32     H    0.22470   0.37890   0.35330   1.000
    C20     C    0.17780   0.30100   0.41720   1.000
    H33     H    0.15190   0.31890   0.32830   1.000
    H34     H    0.14100   0.32610   0.49010   1.000
    O7      O    0.14680   0.17190   0.11390   1.000
    C21     C    0.05450   0.00730   0.88860   1.000
    H35     H    0.09210   0.01220   0.81170   1.000
    C22     C    0.26690   0.16690   0.42300   1.000
    H36     H    0.27260   0.13720   0.51310   1.000
    H37     H    0.27530   0.12110   0.35330   1.000
    C23     C    0.32220   0.19900   0.41720   1.000
    H38     H    0.34810   0.18110   0.32830   1.000
    H39     H    0.35900   0.17390   0.49010   1.000
    O8      O    0.35320   0.32810   0.11390   1.000
    C24     C    0.44550   0.49270   0.88860   1.000
    H40     H    0.40790   0.48780   0.81170   1.000
    C25     C    0.66690   0.76690   0.42300   1.000
    H41     H    0.63720   0.77260   0.51310   1.000
    H42     H    0.62110   0.77530   0.35330   1.000
    C26     C    0.69900   0.82220   0.41720   1.000
    H43     H    0.68110   0.84810   0.32830   1.000
    H44     H    0.67390   0.85900   0.49010   1.000
    O9      O    0.82810   0.85320   0.11390   1.000
    C27     C    0.99270   0.94550   0.88860   1.000
    H45     H    0.98780   0.90790   0.81170   1.000
    C28     C    0.83310   0.73310   0.42300   1.000
    H46     H    0.86280   0.72740   0.51310   1.000
    H47     H    0.87890   0.72470   0.35330   1.000
    C29     C    0.80100   0.67780   0.41720   1.000
    H48     H    0.81890   0.65190   0.32830   1.000
    H49     H    0.82610   0.64100   0.49010   1.000
    O10     O    0.67190   0.64680   0.11390   1.000
    C30     C    0.50730   0.55450   0.88860   1.000
    H50     H    0.51220   0.59210   0.81170   1.000
    C31     C    0.73310   0.66690   0.42300   1.000
    H51     H    0.72740   0.63720   0.51310   1.000
    H52     H    0.72470   0.62110   0.35330   1.000
    C32     C    0.67780   0.69900   0.41720   1.000
    H53     H    0.65190   0.68110   0.32830   1.000
    H54     H    0.64100   0.67390   0.49010   1.000
    O11     O    0.64680   0.82810   0.11390   1.000
    C33     C    0.55450   0.99270   0.88860   1.000
    H55     H    0.59210   0.98780   0.81170   1.000
    C34     C    0.76690   0.83310   0.42300   1.000
    H56     H    0.77260   0.86280   0.51310   1.000
    H57     H    0.77530   0.87890   0.35330   1.000
    C35     C    0.82220   0.80100   0.41720   1.000
    H58     H    0.84810   0.81890   0.32830   1.000
    H59     H    0.85900   0.82610   0.49010   1.000
    O12     O    0.85320   0.67190   0.11390   1.000
    C36     C    0.94550   0.50730   0.88860   1.000
    H60     H    0.90790   0.51220   0.81170   1.000
    C37     C    0.83310   0.76690   0.57700   1.000
    H61     H    0.86280   0.77260   0.48690   1.000
    H62     H    0.87890   0.77530   0.64670   1.000
    C38     C    0.80100   0.82220   0.58280   1.000
    H63     H    0.81890   0.84810   0.67170   1.000
    H64     H    0.82610   0.85900   0.50990   1.000
    O13     O    0.67190   0.85320   0.88610   1.000
    C39     C    0.50730   0.94550   0.11140   1.000
    H65     H    0.51220   0.90790   0.18830   1.000
    C40     C    0.66690   0.73310   0.57700   1.000
    H66     H    0.63720   0.72740   0.48690   1.000
    H67     H    0.62110   0.72470   0.64670   1.000
    C41     C    0.69900   0.67780   0.58280   1.000
    H68     H    0.68110   0.65190   0.67170   1.000
    H69     H    0.67390   0.64100   0.50990   1.000
    O14     O    0.82810   0.64680   0.88610   1.000
    C42     C    0.99270   0.55450   0.11140   1.000
    H70     H    0.98780   0.59210   0.18830   1.000
    C43     C    0.76690   0.66690   0.57700   1.000
    H71     H    0.77260   0.63720   0.48690   1.000
    H72     H    0.77530   0.62110   0.64670   1.000
    C44     C    0.82220   0.69900   0.58280   1.000
    H73     H    0.84810   0.68110   0.67170   1.000
    H74     H    0.85900   0.67390   0.50990   1.000
    O15     O    0.85320   0.82810   0.88610   1.000
    C45     C    0.94550   0.99270   0.11140   1.000
    H75     H    0.90790   0.98780   0.18830   1.000
    C46     C    0.73310   0.83310   0.57700   1.000
    H76     H    0.72740   0.86280   0.48690   1.000
    H77     H    0.72470   0.87890   0.64670   1.000
    C47     C    0.67780   0.80100   0.58280   1.000
    H78     H    0.65190   0.81890   0.67170   1.000
    H79     H    0.64100   0.82610   0.50990   1.000
    O16     O    0.64680   0.67190   0.88610   1.000
    C48     C    0.55450   0.50730   0.11140   1.000
    H80     H    0.59210   0.51220   0.18830   1.000
    Zn1     Zn   0.25000   0.25000   0.84938   1.000
    N1      N    0.25000   0.25000   0.63370   1.000
    Zn2     Zn   0.25000   0.25000   0.15062   1.000
    N2      N    0.25000   0.25000   0.36630   1.000
    Zn3     Zn   0.75000   0.75000   0.15062   1.000
    N3      N    0.75000   0.75000   0.36630   1.000
    Zn4     Zn   0.75000   0.75000   0.84938   1.000
    N4      N    0.75000   0.75000   0.63370   1.000
    C49     C    0.13310   0.13310   0.00000   1.000
    C50     C    0.06370   0.06370   0.00000   1.000
    C51     C    0.36690   0.36690   0.00000   1.000
    C52     C    0.43630   0.43630   0.00000   1.000
    C53     C    0.36690   0.13310   0.00000   1.000
    C54     C    0.43630   0.06370   0.00000   1.000
    C55     C    0.13310   0.36690   0.00000   1.000
    C56     C    0.06370   0.43630   0.00000   1.000
    C57     C    0.86690   0.86690   0.00000   1.000
    C58     C    0.93630   0.93630   0.00000   1.000
    C59     C    0.63310   0.63310   0.00000   1.000
    C60     C    0.56370   0.56370   0.00000   1.000
    C61     C    0.63310   0.86690   0.00000   1.000
    C62     C    0.56370   0.93630   0.00000   1.000
    C63     C    0.86690   0.63310   0.00000   1.000
    C64     C    0.93630   0.56370   0.00000   1.000
