data_functionalizedCrystal
_audit_creation_method	'EQeq! by Chris Wilmer'
_symmetry_space_group_name_H-M	'P1'
_symmetry_Int_Tables_number	1
_symmetry_cell_setting	triclinic
loop_
_symmetry_equiv_pos_as_xyz
  x,y,z
_cell_length_a	21.4718
_cell_length_b	21.4718
_cell_length_c	22.42
_cell_angle_alpha	90
_cell_angle_beta	90
_cell_angle_gamma	120
loop_
_atom_site_label
_atom_site_type_symbol
_atom_site_fract_x
_atom_site_fract_y
_atom_site_fract_z
_atom_site_charge
Mof_Zn	Zn	0.66348	0.18187	0.76813	1.214
Mof_O 	O 	0.52233	0.29366	0.97434	-0.485
Mof_O 	O 	0.56974	0.23303	0.93038	-0.525
Mof_O 	O 	0.49796	0.9116	0.10404	-0.488
Mof_O 	O 	0.50554	0.91796	0.20442	-0.482
Mof_C 	C 	0.5444	0.1557	0.03739	0.007
Mof_H 	H 	0.5443	0.132	0.0016	0.02
Mof_C 	C 	0.54909	0.22013	0.0345	-0.131
Mof_C 	C 	0.5523	0.2577	0.08707	0.047
Mof_H 	H 	0.5559	0.3035	0.0845	0.033
Mof_C 	C 	0.5501	0.2283	0.14196	-0.135
Mof_H 	H 	0.5531	0.2544	0.1772	0.07
Mof_C 	C 	0.5381	0.1259	0.20187	-0.147
Mof_H 	H 	0.5418	0.1508	0.2379	0.063
Mof_C 	C 	0.5275	0.0573	0.20377	0.015
Mof_H 	H 	0.5241	0.0352	0.2413	0.023
Mof_C 	C 	0.5215	0.0193	0.15104	-0.124
Mof_C 	C 	0.5282	0.0514	0.09711	-0.017
Mof_H 	H 	0.5253	0.026	0.0616	0.039
Mof_C 	C 	0.5395	0.1219	0.09335	-0.06
Mof_C 	C 	0.5435	0.1595	0.14636	0.067
Mof_C 	C 	0.54845	0.25169	0.97455	0.398
Mof_C 	C 	0.5067	0.944	0.15325	0.373
Mof_O 	O 	0.4822	0.1506	0.8334	-0.103
Mof_C 	C 	0.4429	0.1131	0.87	-0.233
Mof_H 	H 	0.4566	0.1248	0.9105	-0.001
Mof_N 	N 	0.3763	0.051	0.8578	0.489
Mof_C 	C 	0.3702	0.0278	0.8744	-1.155
Mof_H 	H 	0.3162	0.0361	0.7826	0.408
Mof_H 	H 	0.3237	0.0232	0.8846	1.117
Mof_H 	H 	0.4084	0.0674	0.8973	0.445
Mof_C 	C 	0.3418	0.0124	0.9086	-1.968
Mof_H 	H 	0.335	0.9638	0.9058	0.457
Mof_H 	H 	0.2948	0.0093	0.9122	0.084
Mof_H 	H 	0.371	0.0367	0.9437	0.578
Mof_Zn	Zn	0.33015	0.5152	0.10146	1.213
Mof_O 	O 	0.189	0.62699	0.30767	-0.486
Mof_O 	O 	0.23641	0.56636	0.26371	-0.526
Mof_O 	O 	0.16463	0.24493	0.43737	-0.49
Mof_O 	O 	0.17221	0.25129	0.53775	-0.482
Mof_C 	C 	0.21107	0.48903	0.37072	0.001
Mof_H 	H 	0.21097	0.46533	0.33493	0.021
Mof_C 	C 	0.21576	0.55346	0.36783	-0.127
Mof_C 	C 	0.21897	0.59103	0.4204	0.042
Mof_H 	H 	0.22257	0.63683	0.41783	0.033
Mof_C 	C 	0.21677	0.56163	0.47529	-0.133
Mof_H 	H 	0.21977	0.58773	0.51053	0.068
Mof_C 	C 	0.20477	0.45923	0.5352	-0.147
Mof_H 	H 	0.20847	0.48413	0.57123	0.062
Mof_C 	C 	0.19417	0.39063	0.5371	0.008
Mof_H 	H 	0.19077	0.36853	0.57463	0.025
Mof_C 	C 	0.18817	0.35263	0.48437	-0.119
Mof_C 	C 	0.19487	0.38473	0.43044	-0.022
Mof_H 	H 	0.19197	0.35933	0.39493	0.042
Mof_C 	C 	0.20617	0.45523	0.42668	-0.057
Mof_C 	C 	0.21017	0.49283	0.47969	0.063
Mof_C 	C 	0.21512	0.58502	0.30788	0.394
Mof_C 	C 	0.17337	0.27733	0.48658	0.369
Mof_O 	O 	0.14887	0.48393	0.16673	-0.103
Mof_C 	C 	0.10957	0.44643	0.20333	-0.234
Mof_H 	H 	0.12327	0.45813	0.24383	-0.001
Mof_N 	N 	0.04297	0.38433	0.19113	0.492
Mof_C 	C 	0.03687	0.36113	0.20773	-1.159
Mof_H 	H 	0.98287	0.36943	0.11593	0.406
Mof_H 	H 	0.99037	0.35653	0.21793	1.122
Mof_H 	H 	0.07507	0.40073	0.23063	0.446
Mof_C 	C 	0.00847	0.34573	0.24193	-1.982
Mof_H 	H 	0.00167	0.29713	0.23913	0.461
Mof_H 	H 	0.96147	0.34263	0.24553	0.085
Mof_H 	H 	0.03767	0.37003	0.27703	0.581
Mof_Zn	Zn	0.99682	0.84854	0.43479	1.212
Mof_O 	O 	0.85566	0.96033	0.64101	-0.488
Mof_O 	O 	0.90307	0.8997	0.59705	-0.527
Mof_O 	O 	0.83129	0.57827	0.77071	-0.49
Mof_O 	O 	0.83887	0.58463	0.87109	-0.482
Mof_C 	C 	0.87773	0.82237	0.70406	0.002
Mof_H 	H 	0.87763	0.79867	0.66827	0.021
Mof_C 	C 	0.88242	0.8868	0.70117	-0.128
Mof_C 	C 	0.88563	0.92437	0.75374	0.042
Mof_H 	H 	0.88923	0.97017	0.75117	0.032
Mof_C 	C 	0.88343	0.89497	0.80863	-0.134
Mof_H 	H 	0.88643	0.92107	0.84387	0.067
Mof_C 	C 	0.87143	0.79257	0.86854	-0.146
Mof_H 	H 	0.87513	0.81747	0.90457	0.061
Mof_C 	C 	0.86083	0.72397	0.87044	0.01
Mof_H 	H 	0.85743	0.70187	0.90797	0.025
Mof_C 	C 	0.85483	0.68597	0.81771	-0.118
Mof_C 	C 	0.86153	0.71807	0.76378	-0.022
Mof_H 	H 	0.85863	0.69267	0.72827	0.042
Mof_C 	C 	0.87283	0.78857	0.76002	-0.058
Mof_C 	C 	0.87683	0.82617	0.81303	0.063
Mof_C 	C 	0.88178	0.91836	0.64122	0.395
Mof_C 	C 	0.84003	0.61067	0.81992	0.369
Mof_O 	O 	0.81553	0.81727	0.50007	-0.1
Mof_C 	C 	0.77623	0.77977	0.53667	-0.243
Mof_H 	H 	0.78993	0.79147	0.57717	-0.001
Mof_N 	N 	0.70963	0.71767	0.52447	0.502
Mof_C 	C 	0.70353	0.69447	0.54107	-1.179
Mof_H 	H 	0.64953	0.70277	0.44927	0.414
Mof_H 	H 	0.65703	0.68987	0.55127	1.144
Mof_H 	H 	0.74173	0.73407	0.56397	0.454
Mof_C 	C 	0.67513	0.67907	0.57527	-2.025
Mof_H 	H 	0.66833	0.63047	0.57247	0.472
Mof_H 	H 	0.62813	0.67597	0.57887	0.087
Mof_H 	H 	0.70433	0.70337	0.61037	0.593
Mof_Zn	Zn	0.81813	0.48161	0.76813	1.213
Mof_O 	O 	0.70634	0.22867	0.97434	-0.485
Mof_O 	O 	0.76697	0.33671	0.93038	-0.526
Mof_O 	O 	0.0884	0.58636	0.10404	-0.489
Mof_O 	O 	0.08204	0.58758	0.20442	-0.482
Mof_C 	C 	0.8443	0.3887	0.03739	0.007
Mof_H 	H 	0.868	0.4123	0.0016	0.018
Mof_C 	C 	0.77987	0.32896	0.0345	-0.134
Mof_C 	C 	0.7423	0.2946	0.08707	0.046
Mof_H 	H 	0.6965	0.2524	0.0845	0.031
Mof_C 	C 	0.7717	0.3218	0.14196	-0.137
Mof_H 	H 	0.7456	0.2987	0.1772	0.069
Mof_C 	C 	0.8741	0.4122	0.20187	-0.15
Mof_H 	H 	0.8492	0.391	0.2379	0.063
Mof_C 	C 	0.9427	0.4702	0.20377	0.015
Mof_H 	H 	0.9648	0.4889	0.2413	0.023
Mof_C 	C 	0.9807	0.5022	0.15104	-0.125
Mof_C 	C 	0.9486	0.4768	0.09711	-0.016
Mof_H 	H 	0.974	0.4993	0.0616	0.039
Mof_C 	C 	0.8781	0.4176	0.09335	-0.062
Mof_C 	C 	0.8405	0.384	0.14636	0.068
Mof_C 	C 	0.74831	0.29676	0.97455	0.4
Mof_C 	C 	0.056	0.5627	0.15325	0.374
Mof_O 	O 	0.8494	0.3316	0.8334	-0.107
Mof_C 	C 	0.8869	0.3298	0.87	-0.222
Mof_H 	H 	0.8752	0.3318	0.9105	-0.002
Mof_N 	N 	0.949	0.3253	0.8578	0.478
Mof_C 	C 	0.9722	0.3424	0.8744	-1.131
Mof_H 	H 	0.9639	0.2801	0.7826	0.393
Mof_H 	H 	0.9768	0.3005	0.8846	1.088
Mof_H 	H 	0.9326	0.341	0.8973	0.434
Mof_C 	C 	0.9876	0.3294	0.9086	-1.91
Mof_H 	H 	0.0362	0.3712	0.9058	0.441
Mof_H 	H 	0.9907	0.2855	0.9122	0.082
Mof_H 	H 	0.9633	0.3343	0.9437	0.562
Mof_Zn	Zn	0.4848	0.81495	0.10146	1.214
Mof_O 	O 	0.37301	0.562	0.30767	-0.486
Mof_O 	O 	0.43364	0.67004	0.26371	-0.526
Mof_O 	O 	0.75507	0.91969	0.43737	-0.491
Mof_O 	O 	0.74871	0.92091	0.53775	-0.483
Mof_C 	C 	0.51097	0.72203	0.37072	0.001
Mof_H 	H 	0.53467	0.74563	0.33493	0.021
Mof_C 	C 	0.44654	0.66229	0.36783	-0.127
Mof_C 	C 	0.40897	0.62793	0.4204	0.042
Mof_H 	H 	0.36317	0.58573	0.41783	0.033
Mof_C 	C 	0.43837	0.65513	0.47529	-0.133
Mof_H 	H 	0.41227	0.63203	0.51053	0.068
Mof_C 	C 	0.54077	0.74553	0.5352	-0.146
Mof_H 	H 	0.51587	0.72433	0.57123	0.062
Mof_C 	C 	0.60937	0.80353	0.5371	0.01
Mof_H 	H 	0.63147	0.82223	0.57463	0.025
Mof_C 	C 	0.64737	0.83553	0.48437	-0.119
Mof_C 	C 	0.61527	0.81013	0.43044	-0.021
Mof_H 	H 	0.64067	0.83263	0.39493	0.042
Mof_C 	C 	0.54477	0.75093	0.42668	-0.058
Mof_C 	C 	0.50717	0.71733	0.47969	0.064
Mof_C 	C 	0.41498	0.63009	0.30788	0.394
Mof_C 	C 	0.72267	0.89603	0.48658	0.369
Mof_O 	O 	0.51607	0.66493	0.16673	-0.1
Mof_C 	C 	0.55357	0.66313	0.20333	-0.244
Mof_H 	H 	0.54187	0.66513	0.24383	-0
Mof_N 	N 	0.61567	0.65863	0.19113	0.503
Mof_C 	C 	0.63887	0.67573	0.20773	-1.181
Mof_H 	H 	0.63057	0.61343	0.11593	0.414
Mof_H 	H 	0.64347	0.63383	0.21793	1.147
Mof_H 	H 	0.59927	0.67433	0.23063	0.455
Mof_C 	C 	0.65427	0.66273	0.24193	-2.03
Mof_H 	H 	0.70287	0.70453	0.23913	0.473
Mof_H 	H 	0.65737	0.61883	0.24553	0.088
Mof_H 	H 	0.62997	0.66763	0.27703	0.595
Mof_Zn	Zn	0.15146	0.14828	0.43479	1.213
Mof_O 	O 	0.03967	0.89534	0.64101	-0.487
Mof_O 	O 	0.1003	0.00338	0.59705	-0.529
Mof_O 	O 	0.42173	0.25303	0.77071	-0.49
Mof_O 	O 	0.41537	0.25425	0.87109	-0.482
Mof_C 	C 	0.17763	0.05537	0.70406	-0.001
Mof_H 	H 	0.20133	0.07897	0.66827	0.022
Mof_C 	C 	0.1132	0.99563	0.70117	-0.125
Mof_C 	C 	0.07563	0.96127	0.75374	0.041
Mof_H 	H 	0.02983	0.91907	0.75117	0.034
Mof_C 	C 	0.10503	0.98847	0.80863	-0.132
Mof_H 	H 	0.07893	0.96537	0.84387	0.067
Mof_C 	C 	0.20743	0.07887	0.86854	-0.144
Mof_H 	H 	0.18253	0.05767	0.90457	0.061
Mof_C 	C 	0.27603	0.13687	0.87044	0.01
Mof_H 	H 	0.29813	0.15557	0.90797	0.025
Mof_C 	C 	0.31403	0.16887	0.81771	-0.117
Mof_C 	C 	0.28193	0.14347	0.76378	-0.022
Mof_H 	H 	0.30733	0.16597	0.72827	0.042
Mof_C 	C 	0.21143	0.08427	0.76002	-0.056
Mof_C 	C 	0.17383	0.05067	0.81303	0.062
Mof_C 	C 	0.08164	0.96343	0.64122	0.397
Mof_C 	C 	0.38933	0.22937	0.81992	0.369
Mof_O 	O 	0.18273	0.99827	0.50007	-0.103
Mof_C 	C 	0.22023	0.99647	0.53667	-0.236
Mof_H 	H 	0.20853	0.99847	0.57717	-0.001
Mof_N 	N 	0.28233	0.99197	0.52447	0.494
Mof_C 	C 	0.30553	0.00907	0.54107	-1.171
Mof_H 	H 	0.29723	0.94677	0.44927	0.434
Mof_H 	H 	0.31013	0.96717	0.55127	1.14
Mof_H 	H 	0.26593	0.00767	0.56397	0.45
Mof_C 	C 	0.32093	0.99607	0.57527	-2.017
Mof_H 	H 	0.36953	0.03787	0.57247	0.47
Mof_H 	H 	0.32403	0.95217	0.57887	0.087
Mof_H 	H 	0.29663	0.00097	0.61037	0.591
Mof_Zn	Zn	0.51839	0.33652	0.76813	1.213
Mof_O 	O 	0.77133	0.47767	0.97434	-0.486
Mof_O 	O 	0.66329	0.43026	0.93038	-0.526
Mof_O 	O 	0.41364	0.50204	0.10404	-0.49
Mof_O 	O 	0.41242	0.49446	0.20442	-0.482
Mof_C 	C 	0.6113	0.4556	0.03739	0.003
Mof_H 	H 	0.5877	0.4557	0.0016	0.02
Mof_C 	C 	0.67104	0.45091	0.0345	-0.13
Mof_C 	C 	0.7054	0.4477	0.08707	0.044
Mof_H 	H 	0.7476	0.4441	0.0845	0.032
Mof_C 	C 	0.6782	0.4499	0.14196	-0.134
Mof_H 	H 	0.7013	0.4469	0.1772	0.068
Mof_C 	C 	0.5878	0.4619	0.20187	-0.147
Mof_H 	H 	0.609	0.4582	0.2379	0.062
Mof_C 	C 	0.5298	0.4725	0.20377	0.01
Mof_H 	H 	0.5111	0.4759	0.2413	0.025
Mof_C 	C 	0.4978	0.4785	0.15104	-0.119
Mof_C 	C 	0.5232	0.4718	0.09711	-0.021
Mof_H 	H 	0.5007	0.4747	0.0616	0.042
Mof_C 	C 	0.5824	0.4605	0.09335	-0.059
Mof_C 	C 	0.616	0.4565	0.14636	0.064
Mof_C 	C 	0.70324	0.45155	0.97455	0.397
Mof_C 	C 	0.4373	0.4933	0.15325	0.369
Mof_O 	O 	0.6684	0.5178	0.8334	-0.1
Mof_C 	C 	0.6702	0.5571	0.87	-0.243
Mof_H 	H 	0.6682	0.5434	0.9105	-0
Mof_N 	N 	0.6747	0.6237	0.8578	0.502
Mof_C 	C 	0.6576	0.6298	0.8744	-1.179
Mof_H 	H 	0.7199	0.6838	0.7826	0.415
Mof_H 	H 	0.6995	0.6763	0.8846	1.145
Mof_H 	H 	0.659	0.5916	0.8973	0.455
Mof_C 	C 	0.6706	0.6582	0.9086	-2.026
Mof_H 	H 	0.6288	0.665	0.9058	0.472
Mof_H 	H 	0.7145	0.7052	0.9122	0.087
Mof_H 	H 	0.6657	0.629	0.9437	0.594
Mof_Zn	Zn	0.18505	0.66985	0.10146	1.214
Mof_O 	O 	0.438	0.811	0.30767	-0.486
Mof_O 	O 	0.32996	0.76359	0.26371	-0.525
Mof_O 	O 	0.08031	0.83537	0.43737	-0.488
Mof_O 	O 	0.07909	0.82779	0.53775	-0.481
Mof_C 	C 	0.27797	0.78893	0.37072	0.001
Mof_H 	H 	0.25437	0.78903	0.33493	0.022
Mof_C 	C 	0.33771	0.78424	0.36783	-0.126
Mof_C 	C 	0.37207	0.78103	0.4204	0.041
Mof_H 	H 	0.41427	0.77743	0.41783	0.033
Mof_C 	C 	0.34487	0.78323	0.47529	-0.133
Mof_H 	H 	0.36797	0.78023	0.51053	0.067
Mof_C 	C 	0.25447	0.79523	0.5352	-0.146
Mof_H 	H 	0.27567	0.79153	0.57123	0.062
Mof_C 	C 	0.19647	0.80583	0.5371	0.009
Mof_H 	H 	0.17777	0.80923	0.57463	0.025
Mof_C 	C 	0.16447	0.81183	0.48437	-0.118
Mof_C 	C 	0.18987	0.80513	0.43044	-0.023
Mof_H 	H 	0.16737	0.80803	0.39493	0.042
Mof_C 	C 	0.24907	0.79383	0.42668	-0.057
Mof_C 	C 	0.28267	0.78983	0.47969	0.063
Mof_C 	C 	0.36991	0.78488	0.30788	0.394
Mof_C 	C 	0.10397	0.82663	0.48658	0.369
Mof_O 	O 	0.33507	0.85113	0.16673	-0.107
Mof_C 	C 	0.33687	0.89043	0.20333	-0.216
Mof_H 	H 	0.33487	0.87673	0.24383	-0.003
Mof_N 	N 	0.34137	0.95703	0.19113	0.467
Mof_C 	C 	0.32427	0.96313	0.20773	-1.115
Mof_H 	H 	0.38657	0.01713	0.11593	0.398
Mof_H 	H 	0.36617	0.00963	0.21793	1.07
Mof_H 	H 	0.32567	0.92493	0.23063	0.428
Mof_C 	C 	0.33727	0.99153	0.24193	-1.883
Mof_H 	H 	0.29547	0.99833	0.23913	0.438
Mof_H 	H 	0.38117	0.03853	0.24553	0.078
Mof_H 	H 	0.33237	0.96233	0.27703	0.552
Mof_Zn	Zn	0.85172	0.00318	0.43479	1.214
Mof_O 	O 	0.10466	0.14434	0.64101	-0.486
Mof_O 	O 	0.99662	0.09693	0.59705	-0.521
Mof_O 	O 	0.74697	0.16871	0.77071	-0.49
Mof_O 	O 	0.74575	0.16113	0.87109	-0.482
Mof_C 	C 	0.94463	0.12227	0.70406	0.019
Mof_H 	H 	0.92103	0.12237	0.66827	0.016
Mof_C 	C 	0.00437	0.11758	0.70117	-0.141
Mof_C 	C 	0.03873	0.11437	0.75374	0.055
Mof_H 	H 	0.08093	0.11077	0.75117	0.029
Mof_C 	C 	0.01153	0.11657	0.80863	-0.152
Mof_H 	H 	0.03463	0.11357	0.84387	0.073
Mof_C 	C 	0.92113	0.12857	0.86854	-0.155
Mof_H 	H 	0.94233	0.12487	0.90457	0.068
Mof_C 	C 	0.86313	0.13917	0.87044	0.019
Mof_H 	H 	0.84443	0.14257	0.90797	0.024
Mof_C 	C 	0.83113	0.14517	0.81771	-0.123
Mof_C 	C 	0.85653	0.13847	0.76378	-0.012
Mof_H 	H 	0.83403	0.14137	0.72827	0.039
Mof_C 	C 	0.91573	0.12717	0.76002	-0.068
Mof_C 	C 	0.94933	0.12317	0.81303	0.082
Mof_C 	C 	0.03657	0.11822	0.64122	0.393
Mof_C 	C 	0.77063	0.15997	0.81992	0.371
Mof_O 	O 	0.00173	0.18447	0.50007	-0.091
Mof_C 	C 	0.00353	0.22377	0.53667	-0.269
Mof_H 	H 	0.00153	0.21007	0.57717	0.002
Mof_N 	N 	0.00803	0.29037	0.52447	0.534
Mof_C 	C 	0.99093	0.29647	0.54107	-1.231
Mof_H 	H 	0.05323	0.35047	0.44927	0.41
Mof_H 	H 	0.03283	0.34297	0.55127	1.196
Mof_H 	H 	0.99233	0.25827	0.56397	0.478
Mof_C 	C 	0.00393	0.32487	0.57527	-2.126
Mof_H 	H 	0.96213	0.33167	0.57247	0.496
Mof_H 	H 	0.04783	0.37187	0.57887	0.093
Mof_H 	H 	0.99903	0.29567	0.61037	0.624
Mof_Zn	Zn	0.18187	0.66348	0.23187	1.213
Mof_O 	O 	0.29366	0.52233	0.02566	-0.486
Mof_O 	O 	0.23303	0.56974	0.06962	-0.526
Mof_O 	O 	0.9116	0.49796	0.89596	-0.489
Mof_O 	O 	0.91796	0.50554	0.79558	-0.483
Mof_C 	C 	0.1557	0.5444	0.96261	0.006
Mof_H 	H 	0.132	0.5443	0.9984	0.019
Mof_C 	C 	0.22013	0.54909	0.9655	-0.132
Mof_C 	C 	0.2577	0.5523	0.91293	0.046
Mof_H 	H 	0.3035	0.5559	0.9155	0.032
Mof_C 	C 	0.2283	0.5501	0.85804	-0.136
Mof_H 	H 	0.2544	0.5531	0.8228	0.069
Mof_C 	C 	0.1259	0.5381	0.79813	-0.148
Mof_H 	H 	0.1508	0.5418	0.7621	0.063
Mof_C 	C 	0.0573	0.5275	0.79623	0.015
Mof_H 	H 	0.0352	0.5241	0.7587	0.023
Mof_C 	C 	0.0193	0.5215	0.84896	-0.124
Mof_C 	C 	0.0514	0.5282	0.90289	-0.017
Mof_H 	H 	0.026	0.5253	0.9384	0.039
Mof_C 	C 	0.1219	0.5395	0.90665	-0.06
Mof_C 	C 	0.1595	0.5435	0.85364	0.067
Mof_C 	C 	0.25169	0.54845	0.02545	0.398
Mof_C 	C 	0.944	0.5067	0.84675	0.373
Mof_O 	O 	0.1506	0.4822	0.1666	-0.103
Mof_C 	C 	0.1131	0.4429	0.13	-0.233
Mof_H 	H 	0.1248	0.4566	0.0895	-0.001
Mof_N 	N 	0.051	0.3763	0.1422	0.489
Mof_C 	C 	0.0278	0.3702	0.1256	-1.155
Mof_H 	H 	0.0361	0.3162	0.2174	0.408
Mof_H 	H 	0.0232	0.3237	0.1154	1.117
Mof_H 	H 	0.0674	0.4084	0.1027	0.445
Mof_C 	C 	0.0124	0.3418	0.0914	-1.968
Mof_H 	H 	0.9638	0.335	0.0942	0.457
Mof_H 	H 	0.0093	0.2948	0.0878	0.084
Mof_H 	H 	0.0367	0.371	0.0563	0.578
Mof_Zn	Zn	0.84854	0.99682	0.56521	1.212
Mof_O 	O 	0.96033	0.85566	0.35899	-0.488
Mof_O 	O 	0.8997	0.90307	0.40295	-0.527
Mof_O 	O 	0.57827	0.83129	0.22929	-0.49
Mof_O 	O 	0.58463	0.83887	0.12891	-0.482
Mof_C 	C 	0.82237	0.87773	0.29594	0.002
Mof_H 	H 	0.79867	0.87763	0.33173	0.021
Mof_C 	C 	0.8868	0.88242	0.29883	-0.128
Mof_C 	C 	0.92437	0.88563	0.24626	0.042
Mof_H 	H 	0.97017	0.88923	0.24883	0.032
Mof_C 	C 	0.89497	0.88343	0.19137	-0.134
Mof_H 	H 	0.92107	0.88643	0.15613	0.067
Mof_C 	C 	0.79257	0.87143	0.13146	-0.146
Mof_H 	H 	0.81747	0.87513	0.09543	0.061
Mof_C 	C 	0.72397	0.86083	0.12956	0.01
Mof_H 	H 	0.70187	0.85743	0.09203	0.025
Mof_C 	C 	0.68597	0.85483	0.18229	-0.118
Mof_C 	C 	0.71807	0.86153	0.23622	-0.022
Mof_H 	H 	0.69267	0.85863	0.27173	0.042
Mof_C 	C 	0.78857	0.87283	0.23998	-0.058
Mof_C 	C 	0.82617	0.87683	0.18697	0.063
Mof_C 	C 	0.91836	0.88178	0.35878	0.395
Mof_C 	C 	0.61067	0.84003	0.18008	0.369
Mof_O 	O 	0.81727	0.81553	0.49993	-0.1
Mof_C 	C 	0.77977	0.77623	0.46333	-0.243
Mof_H 	H 	0.79147	0.78993	0.42283	-0.001
Mof_N 	N 	0.71767	0.70963	0.47553	0.502
Mof_C 	C 	0.69447	0.70353	0.45893	-1.179
Mof_H 	H 	0.70277	0.64953	0.55073	0.414
Mof_H 	H 	0.68987	0.65703	0.44873	1.144
Mof_H 	H 	0.73407	0.74173	0.43603	0.454
Mof_C 	C 	0.67907	0.67513	0.42473	-2.025
Mof_H 	H 	0.63047	0.66833	0.42753	0.472
Mof_H 	H 	0.67597	0.62813	0.42113	0.087
Mof_H 	H 	0.70337	0.70433	0.38963	0.593
Mof_Zn	Zn	0.5152	0.33015	0.89854	1.213
Mof_O 	O 	0.62699	0.189	0.69233	-0.486
Mof_O 	O 	0.56636	0.23641	0.73629	-0.526
Mof_O 	O 	0.24493	0.16463	0.56263	-0.49
Mof_O 	O 	0.25129	0.17221	0.46225	-0.482
Mof_C 	C 	0.48903	0.21107	0.62928	0.001
Mof_H 	H 	0.46533	0.21097	0.66507	0.021
Mof_C 	C 	0.55346	0.21576	0.63217	-0.127
Mof_C 	C 	0.59103	0.21897	0.5796	0.042
Mof_H 	H 	0.63683	0.22257	0.58217	0.033
Mof_C 	C 	0.56163	0.21677	0.52471	-0.133
Mof_H 	H 	0.58773	0.21977	0.48947	0.068
Mof_C 	C 	0.45923	0.20477	0.4648	-0.147
Mof_H 	H 	0.48413	0.20847	0.42877	0.062
Mof_C 	C 	0.39063	0.19417	0.4629	0.008
Mof_H 	H 	0.36853	0.19077	0.42537	0.025
Mof_C 	C 	0.35263	0.18817	0.51563	-0.119
Mof_C 	C 	0.38473	0.19487	0.56956	-0.022
Mof_H 	H 	0.35933	0.19197	0.60507	0.042
Mof_C 	C 	0.45523	0.20617	0.57332	-0.057
Mof_C 	C 	0.49283	0.21017	0.52031	0.063
Mof_C 	C 	0.58502	0.21512	0.69212	0.394
Mof_C 	C 	0.27733	0.17337	0.51342	0.369
Mof_O 	O 	0.48393	0.14887	0.83327	-0.103
Mof_C 	C 	0.44643	0.10957	0.79667	-0.234
Mof_H 	H 	0.45813	0.12327	0.75617	-0.001
Mof_N 	N 	0.38433	0.04297	0.80887	0.492
Mof_C 	C 	0.36113	0.03687	0.79227	-1.159
Mof_H 	H 	0.36943	0.98287	0.88407	0.406
Mof_H 	H 	0.35653	0.99037	0.78207	1.122
Mof_H 	H 	0.40073	0.07507	0.76937	0.446
Mof_C 	C 	0.34573	0.00847	0.75807	-1.982
Mof_H 	H 	0.29713	0.00167	0.76087	0.461
Mof_H 	H 	0.34263	0.96147	0.75447	0.085
Mof_H 	H 	0.37003	0.03767	0.72297	0.581
Mof_Zn	Zn	0.48161	0.81813	0.23187	1.213
Mof_O 	O 	0.22867	0.70634	0.02566	-0.485
Mof_O 	O 	0.33671	0.76697	0.06962	-0.526
Mof_O 	O 	0.58636	0.0884	0.89596	-0.489
Mof_O 	O 	0.58758	0.08204	0.79558	-0.482
Mof_C 	C 	0.3887	0.8443	0.96261	0.007
Mof_H 	H 	0.4123	0.868	0.9984	0.018
Mof_C 	C 	0.32896	0.77987	0.9655	-0.134
Mof_C 	C 	0.2946	0.7423	0.91293	0.046
Mof_H 	H 	0.2524	0.6965	0.9155	0.031
Mof_C 	C 	0.3218	0.7717	0.85804	-0.137
Mof_H 	H 	0.2987	0.7456	0.8228	0.069
Mof_C 	C 	0.4122	0.8741	0.79813	-0.15
Mof_H 	H 	0.391	0.8492	0.7621	0.063
Mof_C 	C 	0.4702	0.9427	0.79623	0.015
Mof_H 	H 	0.4889	0.9648	0.7587	0.023
Mof_C 	C 	0.5022	0.9807	0.84896	-0.125
Mof_C 	C 	0.4768	0.9486	0.90289	-0.016
Mof_H 	H 	0.4993	0.974	0.9384	0.039
Mof_C 	C 	0.4176	0.8781	0.90665	-0.062
Mof_C 	C 	0.384	0.8405	0.85364	0.068
Mof_C 	C 	0.29676	0.74831	0.02545	0.4
Mof_C 	C 	0.5627	0.056	0.84675	0.374
Mof_O 	O 	0.3316	0.8494	0.1666	-0.107
Mof_C 	C 	0.3298	0.8869	0.13	-0.222
Mof_H 	H 	0.3318	0.8752	0.0895	-0.002
Mof_N 	N 	0.3253	0.949	0.1422	0.478
Mof_C 	C 	0.3424	0.9722	0.1256	-1.131
Mof_H 	H 	0.2801	0.9639	0.2174	0.393
Mof_H 	H 	0.3005	0.9768	0.1154	1.088
Mof_H 	H 	0.341	0.9326	0.1027	0.434
Mof_C 	C 	0.3294	0.9876	0.0914	-1.91
Mof_H 	H 	0.3712	0.0362	0.0942	0.441
Mof_H 	H 	0.2855	0.9907	0.0878	0.082
Mof_H 	H 	0.3343	0.9633	0.0563	0.562
Mof_Zn	Zn	0.14828	0.15146	0.56521	1.213
Mof_O 	O 	0.89534	0.03967	0.35899	-0.487
Mof_O 	O 	0.00338	0.1003	0.40295	-0.529
Mof_O 	O 	0.25303	0.42173	0.22929	-0.49
Mof_O 	O 	0.25425	0.41537	0.12891	-0.482
Mof_C 	C 	0.05537	0.17763	0.29594	-0.001
Mof_H 	H 	0.07897	0.20133	0.33173	0.022
Mof_C 	C 	0.99563	0.1132	0.29883	-0.125
Mof_C 	C 	0.96127	0.07563	0.24626	0.041
Mof_H 	H 	0.91907	0.02983	0.24883	0.034
Mof_C 	C 	0.98847	0.10503	0.19137	-0.132
Mof_H 	H 	0.96537	0.07893	0.15613	0.067
Mof_C 	C 	0.07887	0.20743	0.13146	-0.144
Mof_H 	H 	0.05767	0.18253	0.09543	0.061
Mof_C 	C 	0.13687	0.27603	0.12956	0.01
Mof_H 	H 	0.15557	0.29813	0.09203	0.025
Mof_C 	C 	0.16887	0.31403	0.18229	-0.117
Mof_C 	C 	0.14347	0.28193	0.23622	-0.022
Mof_H 	H 	0.16597	0.30733	0.27173	0.042
Mof_C 	C 	0.08427	0.21143	0.23998	-0.056
Mof_C 	C 	0.05067	0.17383	0.18697	0.062
Mof_C 	C 	0.96343	0.08164	0.35878	0.397
Mof_C 	C 	0.22937	0.38933	0.18008	0.369
Mof_O 	O 	0.99827	0.18273	0.49993	-0.103
Mof_C 	C 	0.99647	0.22023	0.46333	-0.236
Mof_H 	H 	0.99847	0.20853	0.42283	-0.001
Mof_N 	N 	0.99197	0.28233	0.47553	0.494
Mof_C 	C 	0.00907	0.30553	0.45893	-1.171
Mof_H 	H 	0.94677	0.29723	0.55073	0.434
Mof_H 	H 	0.96717	0.31013	0.44873	1.14
Mof_H 	H 	0.00767	0.26593	0.43603	0.45
Mof_C 	C 	0.99607	0.32093	0.42473	-2.017
Mof_H 	H 	0.03787	0.36953	0.42753	0.47
Mof_H 	H 	0.95217	0.32403	0.42113	0.087
Mof_H 	H 	0.00097	0.29663	0.38963	0.591
Mof_Zn	Zn	0.81495	0.4848	0.89854	1.214
Mof_O 	O 	0.562	0.37301	0.69233	-0.486
Mof_O 	O 	0.67004	0.43364	0.73629	-0.526
Mof_O 	O 	0.91969	0.75507	0.56263	-0.491
Mof_O 	O 	0.92091	0.74871	0.46225	-0.483
Mof_C 	C 	0.72203	0.51097	0.62928	0.001
Mof_H 	H 	0.74563	0.53467	0.66507	0.021
Mof_C 	C 	0.66229	0.44654	0.63217	-0.127
Mof_C 	C 	0.62793	0.40897	0.5796	0.042
Mof_H 	H 	0.58573	0.36317	0.58217	0.033
Mof_C 	C 	0.65513	0.43837	0.52471	-0.133
Mof_H 	H 	0.63203	0.41227	0.48947	0.068
Mof_C 	C 	0.74553	0.54077	0.4648	-0.146
Mof_H 	H 	0.72433	0.51587	0.42877	0.062
Mof_C 	C 	0.80353	0.60937	0.4629	0.01
Mof_H 	H 	0.82223	0.63147	0.42537	0.025
Mof_C 	C 	0.83553	0.64737	0.51563	-0.119
Mof_C 	C 	0.81013	0.61527	0.56956	-0.021
Mof_H 	H 	0.83263	0.64067	0.60507	0.042
Mof_C 	C 	0.75093	0.54477	0.57332	-0.058
Mof_C 	C 	0.71733	0.50717	0.52031	0.064
Mof_C 	C 	0.63009	0.41498	0.69212	0.394
Mof_C 	C 	0.89603	0.72267	0.51342	0.369
Mof_O 	O 	0.66493	0.51607	0.83327	-0.1
Mof_C 	C 	0.66313	0.55357	0.79667	-0.244
Mof_H 	H 	0.66513	0.54187	0.75617	-0
Mof_N 	N 	0.65863	0.61567	0.80887	0.503
Mof_C 	C 	0.67573	0.63887	0.79227	-1.181
Mof_H 	H 	0.61343	0.63057	0.88407	0.414
Mof_H 	H 	0.63383	0.64347	0.78207	1.147
Mof_H 	H 	0.67433	0.59927	0.76937	0.455
Mof_C 	C 	0.66273	0.65427	0.75807	-2.03
Mof_H 	H 	0.70453	0.70287	0.76087	0.473
Mof_H 	H 	0.61883	0.65737	0.75447	0.088
Mof_H 	H 	0.66763	0.62997	0.72297	0.595
Mof_Zn	Zn	0.33652	0.51839	0.23187	1.213
Mof_O 	O 	0.47767	0.77133	0.02566	-0.486
Mof_O 	O 	0.43026	0.66329	0.06962	-0.526
Mof_O 	O 	0.50204	0.41364	0.89596	-0.49
Mof_O 	O 	0.49446	0.41242	0.79558	-0.482
Mof_C 	C 	0.4556	0.6113	0.96261	0.003
Mof_H 	H 	0.4557	0.5877	0.9984	0.02
Mof_C 	C 	0.45091	0.67104	0.9655	-0.13
Mof_C 	C 	0.4477	0.7054	0.91293	0.044
Mof_H 	H 	0.4441	0.7476	0.9155	0.032
Mof_C 	C 	0.4499	0.6782	0.85804	-0.134
Mof_H 	H 	0.4469	0.7013	0.8228	0.068
Mof_C 	C 	0.4619	0.5878	0.79813	-0.147
Mof_H 	H 	0.4582	0.609	0.7621	0.062
Mof_C 	C 	0.4725	0.5298	0.79623	0.01
Mof_H 	H 	0.4759	0.5111	0.7587	0.025
Mof_C 	C 	0.4785	0.4978	0.84896	-0.119
Mof_C 	C 	0.4718	0.5232	0.90289	-0.021
Mof_H 	H 	0.4747	0.5007	0.9384	0.042
Mof_C 	C 	0.4605	0.5824	0.90665	-0.059
Mof_C 	C 	0.4565	0.616	0.85364	0.064
Mof_C 	C 	0.45155	0.70324	0.02545	0.397
Mof_C 	C 	0.4933	0.4373	0.84675	0.369
Mof_O 	O 	0.5178	0.6684	0.1666	-0.1
Mof_C 	C 	0.5571	0.6702	0.13	-0.243
Mof_H 	H 	0.5434	0.6682	0.0895	-0
Mof_N 	N 	0.6237	0.6747	0.1422	0.502
Mof_C 	C 	0.6298	0.6576	0.1256	-1.179
Mof_H 	H 	0.6838	0.7199	0.2174	0.415
Mof_H 	H 	0.6763	0.6995	0.1154	1.145
Mof_H 	H 	0.5916	0.659	0.1027	0.455
Mof_C 	C 	0.6582	0.6706	0.0914	-2.026
Mof_H 	H 	0.665	0.6288	0.0942	0.472
Mof_H 	H 	0.7052	0.7145	0.0878	0.087
Mof_H 	H 	0.629	0.6657	0.0563	0.594
Mof_Zn	Zn	0.00318	0.85172	0.56521	1.214
Mof_O 	O 	0.14434	0.10466	0.35899	-0.486
Mof_O 	O 	0.09693	0.99662	0.40295	-0.521
Mof_O 	O 	0.16871	0.74697	0.22929	-0.49
Mof_O 	O 	0.16113	0.74575	0.12891	-0.482
Mof_C 	C 	0.12227	0.94463	0.29594	0.019
Mof_H 	H 	0.12237	0.92103	0.33173	0.016
Mof_C 	C 	0.11758	0.00437	0.29883	-0.141
Mof_C 	C 	0.11437	0.03873	0.24626	0.055
Mof_H 	H 	0.11077	0.08093	0.24883	0.029
Mof_C 	C 	0.11657	0.01153	0.19137	-0.152
Mof_H 	H 	0.11357	0.03463	0.15613	0.073
Mof_C 	C 	0.12857	0.92113	0.13146	-0.155
Mof_H 	H 	0.12487	0.94233	0.09543	0.068
Mof_C 	C 	0.13917	0.86313	0.12956	0.019
Mof_H 	H 	0.14257	0.84443	0.09203	0.024
Mof_C 	C 	0.14517	0.83113	0.18229	-0.123
Mof_C 	C 	0.13847	0.85653	0.23622	-0.012
Mof_H 	H 	0.14137	0.83403	0.27173	0.039
Mof_C 	C 	0.12717	0.91573	0.23998	-0.068
Mof_C 	C 	0.12317	0.94933	0.18697	0.082
Mof_C 	C 	0.11822	0.03657	0.35878	0.393
Mof_C 	C 	0.15997	0.77063	0.18008	0.371
Mof_O 	O 	0.18447	0.00173	0.49993	-0.091
Mof_C 	C 	0.22377	0.00353	0.46333	-0.269
Mof_H 	H 	0.21007	0.00153	0.42283	0.002
Mof_N 	N 	0.29037	0.00803	0.47553	0.534
Mof_C 	C 	0.29647	0.99093	0.45893	-1.231
Mof_H 	H 	0.35047	0.05323	0.55073	0.41
Mof_H 	H 	0.34297	0.03283	0.44873	1.196
Mof_H 	H 	0.25827	0.99233	0.43603	0.478
Mof_C 	C 	0.32487	0.00393	0.42473	-2.126
Mof_H 	H 	0.33167	0.96213	0.42753	0.496
Mof_H 	H 	0.37187	0.04783	0.42113	0.093
Mof_H 	H 	0.29567	0.99903	0.38963	0.624
Mof_Zn	Zn	0.66985	0.18505	0.89854	1.214
Mof_O 	O 	0.811	0.438	0.69233	-0.486
Mof_O 	O 	0.76359	0.32996	0.73629	-0.525
Mof_O 	O 	0.83537	0.08031	0.56263	-0.488
Mof_O 	O 	0.82779	0.07909	0.46225	-0.481
Mof_C 	C 	0.78893	0.27797	0.62928	0.001
Mof_H 	H 	0.78903	0.25437	0.66507	0.022
Mof_C 	C 	0.78424	0.33771	0.63217	-0.126
Mof_C 	C 	0.78103	0.37207	0.5796	0.041
Mof_H 	H 	0.77743	0.41427	0.58217	0.033
Mof_C 	C 	0.78323	0.34487	0.52471	-0.133
Mof_H 	H 	0.78023	0.36797	0.48947	0.067
Mof_C 	C 	0.79523	0.25447	0.4648	-0.146
Mof_H 	H 	0.79153	0.27567	0.42877	0.062
Mof_C 	C 	0.80583	0.19647	0.4629	0.009
Mof_H 	H 	0.80923	0.17777	0.42537	0.025
Mof_C 	C 	0.81183	0.16447	0.51563	-0.118
Mof_C 	C 	0.80513	0.18987	0.56956	-0.023
Mof_H 	H 	0.80803	0.16737	0.60507	0.042
Mof_C 	C 	0.79383	0.24907	0.57332	-0.057
Mof_C 	C 	0.78983	0.28267	0.52031	0.063
Mof_C 	C 	0.78488	0.36991	0.69212	0.394
Mof_C 	C 	0.82663	0.10397	0.51342	0.369
Mof_O 	O 	0.85113	0.33507	0.83327	-0.107
Mof_C 	C 	0.89043	0.33687	0.79667	-0.216
Mof_H 	H 	0.87673	0.33487	0.75617	-0.003
Mof_N 	N 	0.95703	0.34137	0.80887	0.467
Mof_C 	C 	0.96313	0.32427	0.79227	-1.115
Mof_H 	H 	0.01713	0.38657	0.88407	0.398
Mof_H 	H 	0.00963	0.36617	0.78207	1.07
Mof_H 	H 	0.92493	0.32567	0.76937	0.428
Mof_C 	C 	0.99153	0.33727	0.75807	-1.883
Mof_H 	H 	0.99833	0.29547	0.76087	0.438
Mof_H 	H 	0.03853	0.38117	0.75447	0.078
Mof_H 	H 	0.96233	0.33237	0.72297	0.552
Mof_Zn	Zn	0.57701	0.24367	0.83333	1.193
Mof_Zn	Zn	0.75633	0.33333	0.83333	1.194
Mof_Zn	Zn	0.66667	0.42299	0.83333	1.193
Mof_Zn	Zn	0.24367	0.57701	0.16667	1.193
Mof_Zn	Zn	0.91034	0.91034	0.5	1.192
Mof_Zn	Zn	0.33333	0.75633	0.16667	1.194
Mof_Zn	Zn	-4.3589e-19	0.08966	0.5	1.192
Mof_Zn	Zn	0.42299	0.66667	0.16667	1.193
Mof_Zn	Zn	0.08966	0	0.5	1.192
Mof_O 	O 	0.66667	0.24232	0.83333	-0.946
Mof_O 	O 	0.75768	0.42435	0.83333	-0.946
Mof_O 	O 	0.57565	0.33333	0.83333	-0.946
Mof_O 	O 	0.24232	0.66667	0.16667	-0.946
Mof_O 	O 	0.90898	0	0.5	-0.943
Mof_O 	O 	0.42435	0.75768	0.16667	-0.946
Mof_O 	O 	0.09102	0.09102	0.5	-0.947
Mof_O 	O 	0.33333	0.57565	0.16667	-0.946
Mof_O 	O 	-1.3136e-17	0.90898	0.5	-0.943
_end
