data_functionalizedCrystal
_audit_creation_method	'EQeq! by Chris Wilmer'
_symmetry_space_group_name_H-M	'P1'
_symmetry_Int_Tables_number	1
_symmetry_cell_setting	triclinic
loop_
_symmetry_equiv_pos_as_xyz
  x,y,z
_cell_length_a	20.594
_cell_length_b	20.594
_cell_length_c	6.5304
_cell_angle_alpha	90
_cell_angle_beta	90
_cell_angle_gamma	120
loop_
_atom_site_label
_atom_site_type_symbol
_atom_site_fract_x
_atom_site_fract_y
_atom_site_fract_z
_atom_site_charge
Mof_O 	O 	0.4439	0.2769	0.808	-0.138
Mof_O 	O 	0.5647	0.2983	0.43	-0.385
Mof_O 	O 	0.5283	0.3029	0.449	-0.132
Mof_O 	O 	0.4338	0.271	0.288	-0.092
Mof_O 	O 	0.7231	0.167	0.808	-0.139
Mof_O 	O 	0.7017	0.2664	0.43	-0.386
Mof_O 	O 	0.6971	0.2254	0.449	-0.133
Mof_O 	O 	0.729	0.1628	0.288	-0.092
Mof_O 	O 	0.833	0.5561	0.808	-0.139
Mof_O 	O 	0.7336	0.4353	0.43	-0.386
Mof_O 	O 	0.7746	0.4717	0.449	-0.133
Mof_O 	O 	0.8372	0.5662	0.288	-0.093
Mof_O 	O 	0.4439	0.2769	0.692	-0.137
Mof_O 	O 	0.5647	0.2983	0.07	-0.385
Mof_O 	O 	0.5283	0.3029	0.051	-0.132
Mof_O 	O 	0.4338	0.271	0.212	-0.097
Mof_O 	O 	0.7231	0.167	0.692	-0.137
Mof_O 	O 	0.7017	0.2664	0.07	-0.385
Mof_O 	O 	0.6971	0.2254	0.051	-0.132
Mof_O 	O 	0.729	0.1628	0.212	-0.097
Mof_O 	O 	0.833	0.5561	0.692	-0.137
Mof_O 	O 	0.7336	0.4353	0.07	-0.385
Mof_O 	O 	0.7746	0.4717	0.051	-0.132
Mof_O 	O 	0.8372	0.5662	0.212	-0.097
Mof_O 	O 	0.2769	0.4439	0.192	-0.139
Mof_O 	O 	0.2983	0.5647	0.57	-0.386
Mof_O 	O 	0.3029	0.5283	0.551	-0.133
Mof_O 	O 	0.271	0.4338	0.712	-0.093
Mof_O 	O 	0.167	0.7231	0.192	-0.139
Mof_O 	O 	0.2664	0.7017	0.57	-0.386
Mof_O 	O 	0.2254	0.6971	0.551	-0.133
Mof_O 	O 	0.1628	0.729	0.712	-0.092
Mof_O 	O 	0.5561	0.833	0.192	-0.139
Mof_O 	O 	0.4353	0.7336	0.57	-0.386
Mof_O 	O 	0.4717	0.7746	0.551	-0.133
Mof_O 	O 	0.5662	0.8372	0.712	-0.093
Mof_O 	O 	0.2769	0.4439	0.308	-0.137
Mof_O 	O 	0.2983	0.5647	0.93	-0.385
Mof_O 	O 	0.3029	0.5283	0.949	-0.132
Mof_O 	O 	0.271	0.4338	0.788	-0.097
Mof_O 	O 	0.167	0.7231	0.308	-0.137
Mof_O 	O 	0.2664	0.7017	0.93	-0.385
Mof_O 	O 	0.2254	0.6971	0.949	-0.132
Mof_O 	O 	0.1628	0.729	0.788	-0.097
Mof_O 	O 	0.5561	0.833	0.308	-0.137
Mof_O 	O 	0.4353	0.7336	0.93	-0.385
Mof_O 	O 	0.4717	0.7746	0.949	-0.132
Mof_O 	O 	0.5662	0.8372	0.788	-0.097
Mof_Co	Co	0.55508	0.30242	0.75	1.177
Mof_Co	Co	0.69758	0.25266	0.75	1.177
Mof_Co	Co	0.74734	0.44492	0.75	1.177
Mof_Co	Co	0.30242	0.55508	0.25	1.177
Mof_Co	Co	0.25266	0.69758	0.25	1.177
Mof_Co	Co	0.44492	0.74734	0.25	1.177
Mof_Co	Co	0.66667	0.33333	0.25	1.141
Mof_Co	Co	0.33333	0.66667	0.75	1.141
Mof_O 	O 	0.66667	0.33333	0.684	-0.372
Mof_H 	H 	0.66667	0.33333	0.5551	0.027
Mof_O 	O 	0.66667	0.33333	0.816	-0.368
Mof_H 	H 	0.66667	0.33333	0.9449	0.023
Mof_O 	O 	0.33333	0.66667	0.316	-0.372
Mof_H 	H 	0.33333	0.66667	0.4449	0.027
Mof_O 	O 	0.33333	0.66667	0.184	-0.368
Mof_H 	H 	0.33333	0.66667	0.0551	0.023
Mof_C 	C 	0.4703	0.1654	0.25	-0.14
Mof_C 	C 	0.3968	0.1105	0.25	0.084
Mof_H 	H 	0.3596	0.125	0.25	0.026
Mof_C 	C 	0.3737	0.0352	0.25	-0.171
Mof_H 	H 	0.322	0.9984	0.25	0.099
Mof_C 	C 	0.4299	0.0143	0.25	0.166
Mof_C 	C 	0.5023	0.0682	0.25	-0.184
Mof_H 	H 	0.5394	0.0536	0.25	0.111
Mof_C 	C 	0.5254	0.1427	0.25	0.091
Mof_H 	H 	0.5773	0.1791	0.25	-0.016
Mof_C 	C 	0.3379	0.8751	0.25	0.128
Mof_H 	H 	0.2937	0.8787	0.25	-0.002
Mof_C 	C 	0.4508	0.9045	0.25	0.115
Mof_H 	H 	0.5041	0.9326	0.25	0.009
Mof_N 	N 	0.4067	0.9345	0.25	-0.167
Mof_N 	N 	0.3374	0.8121	0.25	-0.204
Mof_N 	N 	0.4112	0.8311	0.25	-0.195
Mof_P 	P 	0.504	0.2634	0.25	0.423
Mof_C 	C 	0.8346	0.3049	0.25	-0.14
Mof_C 	C 	0.8895	0.2863	0.25	0.084
Mof_H 	H 	0.875	0.2346	0.25	0.026
Mof_C 	C 	0.9648	0.3385	0.25	-0.171
Mof_H 	H 	0.0016	0.3236	0.25	0.099
Mof_C 	C 	0.9857	0.4156	0.25	0.166
Mof_C 	C 	0.9318	0.4341	0.25	-0.184
Mof_H 	H 	0.9464	0.4858	0.25	0.111
Mof_C 	C 	0.8573	0.3827	0.25	0.091
Mof_H 	H 	0.8209	0.3982	0.25	-0.016
Mof_C 	C 	0.1249	0.4628	0.25	0.128
Mof_H 	H 	0.1213	0.415	0.25	-0.002
Mof_C 	C 	0.0955	0.5463	0.25	0.115
Mof_H 	H 	0.0674	0.5715	0.25	0.009
Mof_N 	N 	0.0655	0.4722	0.25	-0.167
Mof_N 	N 	0.1879	0.5253	0.25	-0.204
Mof_N 	N 	0.1689	0.5801	0.25	-0.195
Mof_P 	P 	0.7366	0.2406	0.25	0.423
Mof_C 	C 	0.6951	0.5297	0.25	-0.14
Mof_C 	C 	0.7137	0.6032	0.25	0.085
Mof_H 	H 	0.7654	0.6404	0.25	0.026
Mof_C 	C 	0.6615	0.6263	0.25	-0.172
Mof_H 	H 	0.6764	0.678	0.25	0.1
Mof_C 	C 	0.5844	0.5701	0.25	0.166
Mof_C 	C 	0.5659	0.4977	0.25	-0.184
Mof_H 	H 	0.5142	0.4606	0.25	0.111
Mof_C 	C 	0.6173	0.4746	0.25	0.091
Mof_H 	H 	0.6018	0.4227	0.25	-0.016
Mof_C 	C 	0.5372	0.6621	0.25	0.128
Mof_H 	H 	0.585	0.7063	0.25	-0.002
Mof_C 	C 	0.4537	0.5492	0.25	0.115
Mof_H 	H 	0.4285	0.4959	0.25	0.009
Mof_N 	N 	0.5278	0.5933	0.25	-0.166
Mof_N 	N 	0.4747	0.6626	0.25	-0.204
Mof_N 	N 	0.4199	0.5888	0.25	-0.195
Mof_P 	P 	0.7594	0.496	0.25	0.423
Mof_C 	C 	0.1654	0.4703	0.75	-0.14
Mof_C 	C 	0.1105	0.3968	0.75	0.084
Mof_H 	H 	0.125	0.3596	0.75	0.026
Mof_C 	C 	0.0352	0.3737	0.75	-0.171
Mof_H 	H 	0.9984	0.322	0.75	0.099
Mof_C 	C 	0.0143	0.4299	0.75	0.166
Mof_C 	C 	0.0682	0.5023	0.75	-0.184
Mof_H 	H 	0.0536	0.5394	0.75	0.111
Mof_C 	C 	0.1427	0.5254	0.75	0.091
Mof_H 	H 	0.1791	0.5773	0.75	-0.016
Mof_C 	C 	0.8751	0.3379	0.75	0.128
Mof_H 	H 	0.8787	0.2937	0.75	-0.002
Mof_C 	C 	0.9045	0.4508	0.75	0.115
Mof_H 	H 	0.9326	0.5041	0.75	0.009
Mof_N 	N 	0.9345	0.4067	0.75	-0.167
Mof_N 	N 	0.8121	0.3374	0.75	-0.204
Mof_N 	N 	0.8311	0.4112	0.75	-0.195
Mof_P 	P 	0.2634	0.504	0.75	0.423
Mof_C 	C 	0.3049	0.8346	0.75	-0.14
Mof_C 	C 	0.2863	0.8895	0.75	0.084
Mof_H 	H 	0.2346	0.875	0.75	0.026
Mof_C 	C 	0.3385	0.9648	0.75	-0.171
Mof_H 	H 	0.3236	0.0016	0.75	0.099
Mof_C 	C 	0.4156	0.9857	0.75	0.166
Mof_C 	C 	0.4341	0.9318	0.75	-0.184
Mof_H 	H 	0.4858	0.9464	0.75	0.111
Mof_C 	C 	0.3827	0.8573	0.75	0.091
Mof_H 	H 	0.3982	0.8209	0.75	-0.016
Mof_C 	C 	0.4628	0.1249	0.75	0.128
Mof_H 	H 	0.415	0.1213	0.75	-0.002
Mof_C 	C 	0.5463	0.0955	0.75	0.115
Mof_H 	H 	0.5715	0.0674	0.75	0.009
Mof_N 	N 	0.4722	0.0655	0.75	-0.167
Mof_N 	N 	0.5253	0.1879	0.75	-0.204
Mof_N 	N 	0.5801	0.1689	0.75	-0.195
Mof_P 	P 	0.2406	0.7366	0.75	0.423
Mof_C 	C 	0.5297	0.6951	0.75	-0.14
Mof_C 	C 	0.6032	0.7137	0.75	0.085
Mof_H 	H 	0.6404	0.7654	0.75	0.026
Mof_C 	C 	0.6263	0.6615	0.75	-0.172
Mof_H 	H 	0.678	0.6764	0.75	0.1
Mof_C 	C 	0.5701	0.5844	0.75	0.166
Mof_C 	C 	0.4977	0.5659	0.75	-0.184
Mof_H 	H 	0.4606	0.5142	0.75	0.111
Mof_C 	C 	0.4746	0.6173	0.75	0.091
Mof_H 	H 	0.4227	0.6018	0.75	-0.016
Mof_C 	C 	0.6621	0.5372	0.75	0.128
Mof_H 	H 	0.7063	0.585	0.75	-0.002
Mof_C 	C 	0.5492	0.4537	0.75	0.115
Mof_H 	H 	0.4959	0.4285	0.75	0.009
Mof_N 	N 	0.5933	0.5278	0.75	-0.166
Mof_N 	N 	0.6626	0.4747	0.75	-0.204
Mof_N 	N 	0.5888	0.4199	0.75	-0.195
Mof_P 	P 	0.496	0.7594	0.75	0.423
_end
