# CIF file generated by openbabel 2.4.1, see http://openbabel.sf.net
data_I
_chemical_name_common 'image0'
_cell_length_a 35.0725
_cell_length_b 14.8911
_cell_length_c 30.9658
_cell_angle_alpha 90
_cell_angle_beta 101.956
_cell_angle_gamma 90
_space_group_name_H-M_alt 'P 1'
_space_group_name_Hall 'P 1'
loop_
    _symmetry_equiv_pos_as_xyz
    x,y,z
loop_
    _atom_site_label
    _atom_site_type_symbol
    _atom_site_fract_x
    _atom_site_fract_y
    _atom_site_fract_z
    _atom_site_occupancy
    I1      I    0.85002   0.91320   0.01155   1.000
    Zn1     Zn   0.87485   0.90124   0.93895   1.000
    I2      I    0.89145   0.76060   0.90670   1.000
    N1      N    0.83405   0.96870   0.89221   1.000
    N2      N    0.92303   0.98420   0.94394   1.000
    C1      C    0.93635   0.03560   0.97877   1.000
    C2      C    0.94060   0.98810   0.91027   1.000
    C3      C    0.96734   0.09350   0.98030   1.000
    H1      H    0.92420   0.03260   0.00340   1.000
    C4      C    0.97140   0.04450   0.90886   1.000
    H2      H    0.93160   0.94990   0.88570   1.000
    H3      H    0.97620   0.12990   0.00560   1.000
    C5      C    0.98536   0.09790   0.94491   1.000
    H4      H    0.98280   0.04640   0.88360   1.000
    C6      C    0.01770   0.16090   0.94391   1.000
    N3      N    0.03931   0.14630   0.91392   1.000
    N4      N    0.02231   0.22870   0.97287   1.000
    C7      C    0.06766   0.20640   0.91410   1.000
    C8      C    0.05061   0.28670   0.96851   1.000
    C9      C    0.09327   0.19160   0.88236   1.000
    N5      N    0.07455   0.27790   0.94040   1.000
    C10     C    0.05492   0.36770   0.99702   1.000
    C11     C    0.08229   0.13230   0.84718   1.000
    C12     C    0.12852   0.23630   0.88698   1.000
    C13     C    0.02846   0.38700   0.02287   1.000
    C14     C    0.08652   0.42360   0.99889   1.000
    H5      H    0.05820   0.10100   0.84310   1.000
    C15     C    0.10707   0.11970   0.81823   1.000
    H6      H    0.13660   0.27800   0.91030   1.000
    C16     C    0.15168   0.21910   0.85696   1.000
    C17     C    0.03410   0.46210   0.04962   1.000
    H7      H    0.00660   0.34910   0.02230   1.000
    H8      H    0.10520   0.41270   0.98120   1.000
    C18     C    0.09021   0.49620   0.02741   1.000
    N6      N    0.14141   0.16240   0.82283   1.000
    H9      H    0.09950   0.07950   0.79420   1.000
    H10     H    0.17610   0.24880   0.86060   1.000
    N7      N    0.06489   0.51550   0.05245   1.000
    H11     H    0.01530   0.47600   0.06660   1.000
    H12     H    0.11220   0.53440   0.02910   1.000
    Zn2     Zn   0.17354   0.14570   0.77329   1.000
    Zn3     Zn   0.07771   0.62044   0.09766   1.000
    I3      I    0.12883   0.16664   0.69820   1.000
    I4      I    0.23540   0.23505   0.79640   1.000
    N8      N    0.18623   0.00800   0.78096   1.000
    N9      N    0.11841   0.55150   0.14436   1.000
    I5      I    0.11457   0.73620   0.05810   1.000
    I6      I    0.02207   0.65220   0.13138   1.000
    C19     C    0.15014   0.59060   0.16822   1.000
    C20     C    0.11025   0.46780   0.15380   1.000
    H13     H    0.15620   0.65050   0.16150   1.000
    C21     C    0.17454   0.54580   0.20263   1.000
    C22     C    0.13329   0.41820   0.18688   1.000
    H14     H    0.08750   0.44050   0.13690   1.000
    C23     C    0.16623   0.45800   0.21194   1.000
    H15     H    0.19670   0.57520   0.21960   1.000
    H16     H    0.12670   0.35810   0.19240   1.000
    C24     C    0.19094   0.40580   0.24772   1.000
    N10     N    0.18096   0.32033   0.25219   1.000
    N11     N    0.22174   0.44698   0.27240   1.000
    C25     C    0.20558   0.27450   0.28320   1.000
    C26     C    0.24251   0.39660   0.30474   1.000
    N12     N    0.23600   0.30950   0.31132   1.000
    C27     C    0.19859   0.17630   0.28416   1.000
    C28     C    0.27491   0.44200   0.33486   1.000
    C29     C    0.22465   0.11840   0.30989   1.000
    C30     C    0.16605   0.13940   0.25709   1.000
    C31     C    0.29680   0.39810   0.37150   1.000
    C32     C    0.28422   0.53040   0.32709   1.000
    H17     H    0.24720   0.14090   0.32920   1.000
    C33     C    0.21721   0.02680   0.30695   1.000
    C34     C    0.16065   0.04800   0.25685   1.000
    H18     H    0.14760   0.17690   0.23880   1.000
    C35     C    0.32547   0.44550   0.39927   1.000
    H19     H    0.29200   0.33690   0.37720   1.000
    C36     C    0.31388   0.57240   0.35635   1.000
    H20     H    0.27030   0.56160   0.30190   1.000
    H21     H    0.23530   0.98730   0.32450   1.000
    H22     H    0.13780   0.02370   0.23880   1.000
    H23     H    0.33990   0.41600   0.42470   1.000
    H24     H    0.32020   0.63270   0.35080   1.000
    C37     C    0.78050   0.29480   0.44090   1.000
    H25     H    0.78190   0.27580   0.41070   1.000
    H26     H    0.78800   0.24290   0.46090   1.000
    C38     C    0.74100   0.32100   0.44180   1.000
    H27     H    0.73880   0.33220   0.47270   1.000
    H28     H    0.72300   0.27130   0.43010   1.000
    C39     C    0.72910   0.40430   0.41470   1.000
    H29     H    0.72890   0.39110   0.38330   1.000
    H30     H    0.70240   0.42150   0.41710   1.000
    C40     C    0.75570   0.48010   0.42930   1.000
    H31     H    0.75510   0.49600   0.46020   1.000
    H32     H    0.74730   0.53310   0.41050   1.000
    C41     C    0.79610   0.45380   0.42600   1.000
    H33     H    0.81420   0.50450   0.43550   1.000
    H34     H    0.79680   0.43930   0.39500   1.000
    C42     C    0.80920   0.37200   0.45530   1.000
    H35     H    0.80990   0.38740   0.48660   1.000
    H36     H    0.83570   0.35370   0.45250   1.000
    I7      I    0.85188   0.91112   0.01026   1.000
    I8      I    0.89084   0.75735   0.89993   1.000
    I9      I    0.51831   0.86040   0.63402   1.000
    I10     I    0.61317   0.76131   0.56412   1.000
    Zn4     Zn   0.67730   0.35430   0.28140   1.000
    I11     I    0.63378   0.32010   0.20691   1.000
    I12     I    0.74287   0.27320   0.30840   1.000
    C43     C    0.77700   0.53900   0.44400   1.000
    C44     C    0.74100   0.58500   0.41500   1.000
    H37     H    0.74520   0.64260   0.40360   1.000
    C45     C    0.70400   0.54900   0.40300   1.000
    H38     H    0.68620   0.58740   0.38530   1.000
    C46     C    0.68800   0.46800   0.41300   1.000
    C47     C    0.70900   0.39600   0.44000   1.000
    H39     H    0.69310   0.34520   0.44340   1.000
    C48     C    0.74900   0.38800   0.46300   1.000
    C49     C    0.78100   0.45700   0.46400   1.000
    C50     C    0.81100   0.41800   0.48800   1.000
    H40     H    0.83630   0.44300   0.49600   1.000
    C51     C    0.79900   0.33000   0.50200   1.000
    H41     H    0.81760   0.29200   0.52030   1.000
    C52     C    0.76400   0.30800   0.48900   1.000
    C53     C    0.81100   0.59900   0.44800   1.000
    H42     H    0.80340   0.65430   0.43120   1.000
    H43     H    0.82100   0.61320   0.47890   1.000
    H44     H    0.83160   0.56880   0.43590   1.000
    C54     C    0.64500   0.45500   0.39400   1.000
    H45     H    0.64000   0.41770   0.36600   1.000
    C55     C    0.62700   0.41000   0.43100   1.000
    H46     H    0.59940   0.39950   0.42080   1.000
    H47     H    0.64050   0.35260   0.43980   1.000
    H48     H    0.63140   0.45010   0.45700   1.000
    C56     C    0.62300   0.55200   0.38700   1.000
    H49     H    0.59520   0.54290   0.37410   1.000
    H50     H    0.62600   0.58230   0.41520   1.000
    H51     H    0.63460   0.58840   0.36650   1.000
    C57     C    0.73800   0.22200   0.49400   1.000
    H52     H    0.71110   0.23260   0.47820   1.000
    H53     H    0.74850   0.16890   0.48270   1.000
    H54     H    0.73780   0.21330   0.52570   1.000
    C58     C    0.61380   0.65620   0.42460   1.000
    H55     H    0.62500   0.63230   0.45440   1.000
    H56     H    0.60890   0.72150   0.42590   1.000
    C59     C    0.57730   0.60140   0.39950   1.000
    H57     H    0.58130   0.53610   0.40470   1.000
    H58     H    0.55340   0.62000   0.40930   1.000
    C60     C    0.57450   0.62330   0.35190   1.000
    H59     H    0.54690   0.61840   0.33640   1.000
    H60     H    0.58950   0.57830   0.33890   1.000
    C61     C    0.58990   0.72060   0.34360   1.000
    H61     H    0.57750   0.76670   0.35910   1.000
    H62     H    0.58430   0.73480   0.31160   1.000
    C62     C    0.63590   0.71740   0.36270   1.000
    H63     H    0.65080   0.71610   0.33880   1.000
    H64     H    0.64480   0.76870   0.38260   1.000
    C63     C    0.63890   0.62900   0.38770   1.000
    H65     H    0.66630   0.61370   0.40120   1.000
    H66     H    0.62680   0.57880   0.36870   1.000
    I13     I    0.35002   0.41320   0.01155   1.000
    Zn5     Zn   0.37485   0.40124   0.93895   1.000
    I14     I    0.39145   0.26060   0.90670   1.000
    N13     N    0.33405   0.46870   0.89221   1.000
    N14     N    0.42303   0.48420   0.94394   1.000
    C64     C    0.43635   0.53560   0.97877   1.000
    C65     C    0.44060   0.48810   0.91027   1.000
    C66     C    0.46734   0.59350   0.98030   1.000
    H67     H    0.42420   0.53260   0.00340   1.000
    C67     C    0.47140   0.54450   0.90886   1.000
    H68     H    0.43160   0.44990   0.88570   1.000
    H69     H    0.47620   0.62990   0.00560   1.000
    C68     C    0.48536   0.59790   0.94491   1.000
    H70     H    0.48280   0.54640   0.88360   1.000
    C69     C    0.51770   0.66090   0.94391   1.000
    N15     N    0.53931   0.64630   0.91392   1.000
    N16     N    0.52231   0.72870   0.97287   1.000
    C70     C    0.56766   0.70640   0.91410   1.000
    C71     C    0.55061   0.78670   0.96851   1.000
    C72     C    0.59327   0.69160   0.88236   1.000
    N17     N    0.57455   0.77790   0.94040   1.000
    C73     C    0.55492   0.86770   0.99702   1.000
    C74     C    0.58229   0.63230   0.84718   1.000
    C75     C    0.62852   0.73630   0.88698   1.000
    C76     C    0.52846   0.88700   0.02287   1.000
    C77     C    0.58652   0.92360   0.99889   1.000
    H71     H    0.55820   0.60100   0.84310   1.000
    C78     C    0.60707   0.61970   0.81823   1.000
    H72     H    0.63660   0.77800   0.91030   1.000
    C79     C    0.65168   0.71910   0.85696   1.000
    C80     C    0.53410   0.96210   0.04962   1.000
    H73     H    0.50660   0.84910   0.02230   1.000
    H74     H    0.60520   0.91270   0.98120   1.000
    C81     C    0.59021   0.99620   0.02741   1.000
    N18     N    0.64141   0.66240   0.82283   1.000
    H75     H    0.59950   0.57950   0.79420   1.000
    H76     H    0.67610   0.74880   0.86060   1.000
    N19     N    0.56489   0.01550   0.05245   1.000
    H77     H    0.51530   0.97600   0.06660   1.000
    H78     H    0.61220   0.03440   0.02910   1.000
    Zn6     Zn   0.67354   0.64570   0.77329   1.000
    Zn7     Zn   0.57771   0.12044   0.09766   1.000
    I15     I    0.62883   0.66664   0.69820   1.000
    I16     I    0.73540   0.73505   0.79640   1.000
    N20     N    0.68623   0.50800   0.78096   1.000
    N21     N    0.61841   0.05150   0.14436   1.000
    I17     I    0.61457   0.23620   0.05810   1.000
    I18     I    0.52207   0.15220   0.13138   1.000
    C82     C    0.65014   0.09060   0.16822   1.000
    C83     C    0.61025   0.96780   0.15380   1.000
    H79     H    0.65620   0.15050   0.16150   1.000
    C84     C    0.67454   0.04580   0.20263   1.000
    C85     C    0.63329   0.91820   0.18688   1.000
    H80     H    0.58750   0.94050   0.13690   1.000
    C86     C    0.66623   0.95800   0.21194   1.000
    H81     H    0.69670   0.07520   0.21960   1.000
    H82     H    0.62670   0.85810   0.19240   1.000
    C87     C    0.69094   0.90580   0.24772   1.000
    N22     N    0.68096   0.82033   0.25219   1.000
    N23     N    0.72174   0.94698   0.27240   1.000
    C88     C    0.70558   0.77450   0.28320   1.000
    C89     C    0.74251   0.89660   0.30474   1.000
    N24     N    0.73600   0.80950   0.31132   1.000
    C90     C    0.69859   0.67630   0.28416   1.000
    C91     C    0.77491   0.94200   0.33486   1.000
    C92     C    0.72465   0.61840   0.30989   1.000
    C93     C    0.66605   0.63940   0.25709   1.000
    C94     C    0.79680   0.89810   0.37150   1.000
    C95     C    0.78422   0.03040   0.32709   1.000
    H83     H    0.74720   0.64090   0.32920   1.000
    C96     C    0.71721   0.52680   0.30695   1.000
    C97     C    0.66065   0.54800   0.25685   1.000
    H84     H    0.64760   0.67690   0.23880   1.000
    C98     C    0.82547   0.94550   0.39927   1.000
    H85     H    0.79200   0.83690   0.37720   1.000
    C99     C    0.81388   0.07240   0.35635   1.000
    H86     H    0.77030   0.06160   0.30190   1.000
    H87     H    0.73530   0.48730   0.32450   1.000
    H88     H    0.63780   0.52370   0.23880   1.000
    H89     H    0.83990   0.91600   0.42470   1.000
    H90     H    0.82020   0.13270   0.35080   1.000
    C100    C    0.28050   0.79480   0.44090   1.000
    H91     H    0.28190   0.77580   0.41070   1.000
    H92     H    0.28800   0.74290   0.46090   1.000
    C101    C    0.24100   0.82100   0.44180   1.000
    H93     H    0.23880   0.83220   0.47270   1.000
    H94     H    0.22300   0.77130   0.43010   1.000
    C102    C    0.22910   0.90430   0.41470   1.000
    H95     H    0.22890   0.89110   0.38330   1.000
    H96     H    0.20240   0.92150   0.41710   1.000
    C103    C    0.25570   0.98010   0.42930   1.000
    H97     H    0.25510   0.99600   0.46020   1.000
    H98     H    0.24730   0.03310   0.41050   1.000
    C104    C    0.29610   0.95380   0.42600   1.000
    H99     H    0.31420   0.00450   0.43550   1.000
    H100    H    0.29680   0.93930   0.39500   1.000
    C105    C    0.30920   0.87200   0.45530   1.000
    H101    H    0.30990   0.88740   0.48660   1.000
    H102    H    0.33570   0.85370   0.45250   1.000
    I19     I    0.35188   0.41112   0.01026   1.000
    I20     I    0.39084   0.25735   0.89993   1.000
    I21     I    0.01831   0.36040   0.63402   1.000
    I22     I    0.11317   0.26131   0.56412   1.000
    Zn8     Zn   0.17730   0.85430   0.28140   1.000
    I23     I    0.13378   0.82010   0.20691   1.000
    I24     I    0.24287   0.77320   0.30840   1.000
    C106    C    0.27700   0.03900   0.44400   1.000
    C107    C    0.24100   0.08500   0.41500   1.000
    H103    H    0.24520   0.14260   0.40360   1.000
    C108    C    0.20400   0.04900   0.40300   1.000
    H104    H    0.18620   0.08740   0.38530   1.000
    C109    C    0.18800   0.96800   0.41300   1.000
    C110    C    0.20900   0.89600   0.44000   1.000
    H105    H    0.19310   0.84520   0.44340   1.000
    C111    C    0.24900   0.88800   0.46300   1.000
    C112    C    0.28100   0.95700   0.46400   1.000
    C113    C    0.31100   0.91800   0.48800   1.000
    H106    H    0.33630   0.94300   0.49600   1.000
    C114    C    0.29900   0.83000   0.50200   1.000
    H107    H    0.31760   0.79200   0.52030   1.000
    C115    C    0.26400   0.80800   0.48900   1.000
    C116    C    0.31100   0.09900   0.44800   1.000
    H108    H    0.30340   0.15430   0.43120   1.000
    H109    H    0.32100   0.11320   0.47890   1.000
    H110    H    0.33160   0.06880   0.43590   1.000
    C117    C    0.14500   0.95500   0.39400   1.000
    H111    H    0.14000   0.91770   0.36600   1.000
    C118    C    0.12700   0.91000   0.43100   1.000
    H112    H    0.09940   0.89950   0.42080   1.000
    H113    H    0.14050   0.85260   0.43980   1.000
    H114    H    0.13140   0.95010   0.45700   1.000
    C119    C    0.12300   0.05200   0.38700   1.000
    H115    H    0.09520   0.04290   0.37410   1.000
    H116    H    0.12600   0.08230   0.41520   1.000
    H117    H    0.13460   0.08840   0.36650   1.000
    C120    C    0.23800   0.72200   0.49400   1.000
    H118    H    0.21110   0.73260   0.47820   1.000
    H119    H    0.24850   0.66890   0.48270   1.000
    H120    H    0.23780   0.71330   0.52570   1.000
    C121    C    0.11380   0.15620   0.42460   1.000
    H121    H    0.12500   0.13230   0.45440   1.000
    H122    H    0.10890   0.22150   0.42590   1.000
    C122    C    0.07730   0.10140   0.39950   1.000
    H123    H    0.08130   0.03610   0.40470   1.000
    H124    H    0.05340   0.12000   0.40930   1.000
    C123    C    0.07450   0.12330   0.35190   1.000
    H125    H    0.04690   0.11840   0.33640   1.000
    H126    H    0.08950   0.07830   0.33890   1.000
    C124    C    0.08990   0.22060   0.34360   1.000
    H127    H    0.07750   0.26670   0.35910   1.000
    H128    H    0.08430   0.23480   0.31160   1.000
    C125    C    0.13590   0.21740   0.36270   1.000
    H129    H    0.15080   0.21610   0.33880   1.000
    H130    H    0.14480   0.26870   0.38260   1.000
    C126    C    0.13890   0.12900   0.38770   1.000
    H131    H    0.16630   0.11370   0.40120   1.000
    H132    H    0.12680   0.07880   0.36870   1.000
    I25     I    0.14998   0.91320   0.48845   1.000
    Zn9     Zn   0.12515   0.90124   0.56105   1.000
    I26     I    0.10855   0.76060   0.59330   1.000
    N25     N    0.16595   0.96870   0.60779   1.000
    N26     N    0.07697   0.98420   0.55606   1.000
    C127    C    0.06365   0.03560   0.52123   1.000
    C128    C    0.05940   0.98810   0.58973   1.000
    C129    C    0.03266   0.09350   0.51970   1.000
    H133    H    0.07580   0.03260   0.49660   1.000
    C130    C    0.02860   0.04450   0.59114   1.000
    H134    H    0.06840   0.94990   0.61430   1.000
    H135    H    0.02380   0.12990   0.49440   1.000
    C131    C    0.01464   0.09790   0.55509   1.000
    H136    H    0.01720   0.04640   0.61640   1.000
    C132    C    0.98230   0.16090   0.55609   1.000
    N27     N    0.96069   0.14630   0.58608   1.000
    N28     N    0.97769   0.22870   0.52713   1.000
    C133    C    0.93234   0.20640   0.58590   1.000
    C134    C    0.94939   0.28670   0.53149   1.000
    C135    C    0.90673   0.19160   0.61764   1.000
    N29     N    0.92545   0.27790   0.55960   1.000
    C136    C    0.94508   0.36770   0.50298   1.000
    C137    C    0.91771   0.13230   0.65282   1.000
    C138    C    0.87148   0.23630   0.61302   1.000
    C139    C    0.97154   0.38700   0.47713   1.000
    C140    C    0.91348   0.42360   0.50111   1.000
    H137    H    0.94180   0.10100   0.65690   1.000
    C141    C    0.89293   0.11970   0.68177   1.000
    H138    H    0.86340   0.27800   0.58970   1.000
    C142    C    0.84832   0.21910   0.64304   1.000
    C143    C    0.96590   0.46210   0.45038   1.000
    H139    H    0.99340   0.34910   0.47770   1.000
    H140    H    0.89480   0.41270   0.51880   1.000
    C144    C    0.90979   0.49620   0.47259   1.000
    N30     N    0.85859   0.16240   0.67717   1.000
    H141    H    0.90050   0.07950   0.70580   1.000
    H142    H    0.82390   0.24880   0.63940   1.000
    N31     N    0.93511   0.51550   0.44755   1.000
    H143    H    0.98470   0.47600   0.43340   1.000
    H144    H    0.88780   0.53440   0.47090   1.000
    Zn10    Zn   0.82646   0.14570   0.72671   1.000
    Zn11    Zn   0.92229   0.62044   0.40234   1.000
    I27     I    0.87117   0.16664   0.80180   1.000
    I28     I    0.76460   0.23505   0.70360   1.000
    N32     N    0.81377   0.00800   0.71904   1.000
    N33     N    0.88159   0.55150   0.35564   1.000
    I29     I    0.88543   0.73620   0.44190   1.000
    I30     I    0.97793   0.65220   0.36862   1.000
    C145    C    0.84986   0.59060   0.33178   1.000
    C146    C    0.88975   0.46780   0.34620   1.000
    H145    H    0.84380   0.65050   0.33850   1.000
    C147    C    0.82546   0.54580   0.29737   1.000
    C148    C    0.86671   0.41820   0.31312   1.000
    H146    H    0.91250   0.44050   0.36310   1.000
    C149    C    0.83377   0.45800   0.28806   1.000
    H147    H    0.80330   0.57520   0.28040   1.000
    H148    H    0.87330   0.35810   0.30760   1.000
    C150    C    0.80906   0.40580   0.25228   1.000
    N34     N    0.81904   0.32033   0.24781   1.000
    N35     N    0.77826   0.44698   0.22760   1.000
    C151    C    0.79442   0.27450   0.21680   1.000
    C152    C    0.75749   0.39660   0.19526   1.000
    N36     N    0.76400   0.30950   0.18868   1.000
    C153    C    0.80141   0.17630   0.21584   1.000
    C154    C    0.72509   0.44200   0.16514   1.000
    C155    C    0.77535   0.11840   0.19011   1.000
    C156    C    0.83395   0.13940   0.24291   1.000
    C157    C    0.70320   0.39810   0.12850   1.000
    C158    C    0.71578   0.53040   0.17291   1.000
    H149    H    0.75280   0.14090   0.17080   1.000
    C159    C    0.78279   0.02680   0.19305   1.000
    C160    C    0.83935   0.04800   0.24315   1.000
    H150    H    0.85240   0.17690   0.26120   1.000
    C161    C    0.67453   0.44550   0.10073   1.000
    H151    H    0.70800   0.33690   0.12280   1.000
    C162    C    0.68612   0.57240   0.14365   1.000
    H152    H    0.72970   0.56160   0.19810   1.000
    H153    H    0.76470   0.98730   0.17550   1.000
    H154    H    0.86220   0.02370   0.26120   1.000
    H155    H    0.66010   0.41600   0.07530   1.000
    H156    H    0.67980   0.63270   0.14920   1.000
    C163    C    0.21950   0.29480   0.05910   1.000
    H157    H    0.21810   0.27580   0.08930   1.000
    H158    H    0.21200   0.24290   0.03910   1.000
    C164    C    0.25900   0.32100   0.05820   1.000
    H159    H    0.26120   0.33220   0.02730   1.000
    H160    H    0.27700   0.27130   0.06990   1.000
    C165    C    0.27090   0.40430   0.08530   1.000
    H161    H    0.27110   0.39110   0.11670   1.000
    H162    H    0.29760   0.42150   0.08290   1.000
    C166    C    0.24430   0.48010   0.07070   1.000
    H163    H    0.24490   0.49600   0.03980   1.000
    H164    H    0.25270   0.53310   0.08950   1.000
    C167    C    0.20390   0.45380   0.07400   1.000
    H165    H    0.18580   0.50450   0.06450   1.000
    H166    H    0.20320   0.43930   0.10500   1.000
    C168    C    0.19080   0.37200   0.04470   1.000
    H167    H    0.19010   0.38740   0.01340   1.000
    H168    H    0.16430   0.35370   0.04750   1.000
    I31     I    0.14812   0.91112   0.48974   1.000
    I32     I    0.10916   0.75735   0.60007   1.000
    I33     I    0.48169   0.86040   0.86598   1.000
    I34     I    0.38683   0.76131   0.93588   1.000
    Zn12    Zn   0.32270   0.35430   0.21860   1.000
    I35     I    0.36622   0.32010   0.29309   1.000
    I36     I    0.25713   0.27320   0.19160   1.000
    C169    C    0.22300   0.53900   0.05600   1.000
    C170    C    0.25900   0.58500   0.08500   1.000
    H169    H    0.25480   0.64260   0.09640   1.000
    C171    C    0.29600   0.54900   0.09700   1.000
    H170    H    0.31380   0.58740   0.11470   1.000
    C172    C    0.31200   0.46800   0.08700   1.000
    C173    C    0.29100   0.39600   0.06000   1.000
    H171    H    0.30690   0.34520   0.05660   1.000
    C174    C    0.25100   0.38800   0.03700   1.000
    C175    C    0.21900   0.45700   0.03600   1.000
    C176    C    0.18900   0.41800   0.01200   1.000
    H172    H    0.16370   0.44300   0.00400   1.000
    C177    C    0.20100   0.33000   0.99800   1.000
    H173    H    0.18240   0.29200   0.97970   1.000
    C178    C    0.23600   0.30800   0.01100   1.000
    C179    C    0.18900   0.59900   0.05200   1.000
    H174    H    0.19660   0.65430   0.06880   1.000
    H175    H    0.17900   0.61320   0.02110   1.000
    H176    H    0.16840   0.56880   0.06410   1.000
    C180    C    0.35500   0.45500   0.10600   1.000
    H177    H    0.36000   0.41770   0.13400   1.000
    C181    C    0.37300   0.41000   0.06900   1.000
    H178    H    0.40060   0.39950   0.07920   1.000
    H179    H    0.35950   0.35260   0.06020   1.000
    H180    H    0.36860   0.45010   0.04300   1.000
    C182    C    0.37700   0.55200   0.11300   1.000
    H181    H    0.40480   0.54290   0.12590   1.000
    H182    H    0.37400   0.58230   0.08480   1.000
    H183    H    0.36540   0.58840   0.13350   1.000
    C183    C    0.26200   0.22200   0.00600   1.000
    H184    H    0.28890   0.23260   0.02180   1.000
    H185    H    0.25150   0.16890   0.01730   1.000
    H186    H    0.26220   0.21330   0.97430   1.000
    C184    C    0.38620   0.65620   0.07540   1.000
    H187    H    0.37500   0.63230   0.04560   1.000
    H188    H    0.39110   0.72150   0.07410   1.000
    C185    C    0.42270   0.60140   0.10050   1.000
    H189    H    0.41870   0.53610   0.09530   1.000
    H190    H    0.44660   0.62000   0.09070   1.000
    C186    C    0.42550   0.62330   0.14810   1.000
    H191    H    0.45310   0.61840   0.16360   1.000
    H192    H    0.41050   0.57830   0.16110   1.000
    C187    C    0.41010   0.72060   0.15640   1.000
    H193    H    0.42250   0.76670   0.14090   1.000
    H194    H    0.41570   0.73480   0.18840   1.000
    C188    C    0.36410   0.71740   0.13730   1.000
    H195    H    0.34920   0.71610   0.16120   1.000
    H196    H    0.35520   0.76870   0.11740   1.000
    C189    C    0.36110   0.62900   0.11230   1.000
    H197    H    0.33370   0.61370   0.09880   1.000
    H198    H    0.37320   0.57880   0.13130   1.000
    I37     I    0.64998   0.41320   0.48845   1.000
    Zn13    Zn   0.62515   0.40124   0.56105   1.000
    I38     I    0.60855   0.26060   0.59330   1.000
    N37     N    0.66595   0.46870   0.60779   1.000
    N38     N    0.57697   0.48420   0.55606   1.000
    C190    C    0.56365   0.53560   0.52123   1.000
    C191    C    0.55940   0.48810   0.58973   1.000
    C192    C    0.53266   0.59350   0.51970   1.000
    H199    H    0.57580   0.53260   0.49660   1.000
    C193    C    0.52860   0.54450   0.59114   1.000
    H200    H    0.56840   0.44990   0.61430   1.000
    H201    H    0.52380   0.62990   0.49440   1.000
    C194    C    0.51464   0.59790   0.55509   1.000
    H202    H    0.51720   0.54640   0.61640   1.000
    C195    C    0.48230   0.66090   0.55609   1.000
    N39     N    0.46069   0.64630   0.58608   1.000
    N40     N    0.47769   0.72870   0.52713   1.000
    C196    C    0.43234   0.70640   0.58590   1.000
    C197    C    0.44939   0.78670   0.53149   1.000
    C198    C    0.40673   0.69160   0.61764   1.000
    N41     N    0.42545   0.77790   0.55960   1.000
    C199    C    0.44508   0.86770   0.50298   1.000
    C200    C    0.41771   0.63230   0.65282   1.000
    C201    C    0.37148   0.73630   0.61302   1.000
    C202    C    0.47154   0.88700   0.47713   1.000
    C203    C    0.41348   0.92360   0.50111   1.000
    H203    H    0.44180   0.60100   0.65690   1.000
    C204    C    0.39293   0.61970   0.68177   1.000
    H204    H    0.36340   0.77800   0.58970   1.000
    C205    C    0.34832   0.71910   0.64304   1.000
    C206    C    0.46590   0.96210   0.45038   1.000
    H205    H    0.49340   0.84910   0.47770   1.000
    H206    H    0.39480   0.91270   0.51880   1.000
    C207    C    0.40979   0.99620   0.47259   1.000
    N42     N    0.35859   0.66240   0.67717   1.000
    H207    H    0.40050   0.57950   0.70580   1.000
    H208    H    0.32390   0.74880   0.63940   1.000
    N43     N    0.43511   0.01550   0.44755   1.000
    H209    H    0.48470   0.97600   0.43340   1.000
    H210    H    0.38780   0.03440   0.47090   1.000
    Zn14    Zn   0.32646   0.64570   0.72671   1.000
    Zn15    Zn   0.42229   0.12044   0.40234   1.000
    I39     I    0.37117   0.66664   0.80180   1.000
    I40     I    0.26460   0.73505   0.70360   1.000
    N44     N    0.31377   0.50800   0.71904   1.000
    N45     N    0.38159   0.05150   0.35564   1.000
    I41     I    0.38543   0.23620   0.44190   1.000
    I42     I    0.47793   0.15220   0.36862   1.000
    C208    C    0.34986   0.09060   0.33178   1.000
    C209    C    0.38975   0.96780   0.34620   1.000
    H211    H    0.34380   0.15050   0.33850   1.000
    C210    C    0.32546   0.04580   0.29737   1.000
    C211    C    0.36671   0.91820   0.31312   1.000
    H212    H    0.41250   0.94050   0.36310   1.000
    C212    C    0.33377   0.95800   0.28806   1.000
    H213    H    0.30330   0.07520   0.28040   1.000
    H214    H    0.37330   0.85810   0.30760   1.000
    C213    C    0.30906   0.90580   0.25228   1.000
    N46     N    0.31904   0.82033   0.24781   1.000
    N47     N    0.27826   0.94698   0.22760   1.000
    C214    C    0.29442   0.77450   0.21680   1.000
    C215    C    0.25749   0.89660   0.19526   1.000
    N48     N    0.26400   0.80950   0.18868   1.000
    C216    C    0.30141   0.67630   0.21584   1.000
    C217    C    0.22509   0.94200   0.16514   1.000
    C218    C    0.27535   0.61840   0.19011   1.000
    C219    C    0.33395   0.63940   0.24291   1.000
    C220    C    0.20320   0.89810   0.12850   1.000
    C221    C    0.21578   0.03040   0.17291   1.000
    H215    H    0.25280   0.64090   0.17080   1.000
    C222    C    0.28279   0.52680   0.19305   1.000
    C223    C    0.33935   0.54800   0.24315   1.000
    H216    H    0.35240   0.67690   0.26120   1.000
    C224    C    0.17453   0.94550   0.10073   1.000
    H217    H    0.20800   0.83690   0.12280   1.000
    C225    C    0.18612   0.07240   0.14365   1.000
    H218    H    0.22970   0.06160   0.19810   1.000
    H219    H    0.26470   0.48730   0.17550   1.000
    H220    H    0.36220   0.52370   0.26120   1.000
    H221    H    0.16010   0.91600   0.07530   1.000
    H222    H    0.17980   0.13270   0.14920   1.000
    C226    C    0.71950   0.79480   0.05910   1.000
    H223    H    0.71810   0.77580   0.08930   1.000
    H224    H    0.71200   0.74290   0.03910   1.000
    C227    C    0.75900   0.82100   0.05820   1.000
    H225    H    0.76120   0.83220   0.02730   1.000
    H226    H    0.77700   0.77130   0.06990   1.000
    C228    C    0.77090   0.90430   0.08530   1.000
    H227    H    0.77110   0.89110   0.11670   1.000
    H228    H    0.79760   0.92150   0.08290   1.000
    C229    C    0.74430   0.98010   0.07070   1.000
    H229    H    0.74490   0.99600   0.03980   1.000
    H230    H    0.75270   0.03310   0.08950   1.000
    C230    C    0.70390   0.95380   0.07400   1.000
    H231    H    0.68580   0.00450   0.06450   1.000
    H232    H    0.70320   0.93930   0.10500   1.000
    C231    C    0.69080   0.87200   0.04470   1.000
    H233    H    0.69010   0.88740   0.01340   1.000
    H234    H    0.66430   0.85370   0.04750   1.000
    I43     I    0.64812   0.41112   0.48974   1.000
    I44     I    0.60916   0.25735   0.60007   1.000
    I45     I    0.98169   0.36040   0.86598   1.000
    I46     I    0.88683   0.26131   0.93588   1.000
    Zn16    Zn   0.82270   0.85430   0.21860   1.000
    I47     I    0.86622   0.82010   0.29309   1.000
    I48     I    0.75713   0.77320   0.19160   1.000
    C232    C    0.72300   0.03900   0.05600   1.000
    C233    C    0.75900   0.08500   0.08500   1.000
    H235    H    0.75480   0.14260   0.09640   1.000
    C234    C    0.79600   0.04900   0.09700   1.000
    H236    H    0.81380   0.08740   0.11470   1.000
    C235    C    0.81200   0.96800   0.08700   1.000
    C236    C    0.79100   0.89600   0.06000   1.000
    H237    H    0.80690   0.84520   0.05660   1.000
    C237    C    0.75100   0.88800   0.03700   1.000
    C238    C    0.71900   0.95700   0.03600   1.000
    C239    C    0.68900   0.91800   0.01200   1.000
    H238    H    0.66370   0.94300   0.00400   1.000
    C240    C    0.70100   0.83000   0.99800   1.000
    H239    H    0.68240   0.79200   0.97970   1.000
    C241    C    0.73600   0.80800   0.01100   1.000
    C242    C    0.68900   0.09900   0.05200   1.000
    H240    H    0.69660   0.15430   0.06880   1.000
    H241    H    0.67900   0.11320   0.02110   1.000
    H242    H    0.66840   0.06880   0.06410   1.000
    C243    C    0.85500   0.95500   0.10600   1.000
    H243    H    0.86000   0.91770   0.13400   1.000
    C244    C    0.87300   0.91000   0.06900   1.000
    H244    H    0.90060   0.89950   0.07920   1.000
    H245    H    0.85950   0.85260   0.06020   1.000
    H246    H    0.86860   0.95010   0.04300   1.000
    C245    C    0.87700   0.05200   0.11300   1.000
    H247    H    0.90480   0.04290   0.12590   1.000
    H248    H    0.87400   0.08230   0.08480   1.000
    H249    H    0.86540   0.08840   0.13350   1.000
    C246    C    0.76200   0.72200   0.00600   1.000
    H250    H    0.78890   0.73260   0.02180   1.000
    H251    H    0.75150   0.66890   0.01730   1.000
    H252    H    0.76220   0.71330   0.97430   1.000
    C247    C    0.88620   0.15620   0.07540   1.000
    H253    H    0.87500   0.13230   0.04560   1.000
    H254    H    0.89110   0.22150   0.07410   1.000
    C248    C    0.92270   0.10140   0.10050   1.000
    H255    H    0.91870   0.03610   0.09530   1.000
    H256    H    0.94660   0.12000   0.09070   1.000
    C249    C    0.92550   0.12330   0.14810   1.000
    H257    H    0.95310   0.11840   0.16360   1.000
    H258    H    0.91050   0.07830   0.16110   1.000
    C250    C    0.91010   0.22060   0.15640   1.000
    H259    H    0.92250   0.26670   0.14090   1.000
    H260    H    0.91570   0.23480   0.18840   1.000
    C251    C    0.86410   0.21740   0.13730   1.000
    H261    H    0.84920   0.21610   0.16120   1.000
    H262    H    0.85520   0.26870   0.11740   1.000
    C252    C    0.86110   0.12900   0.11230   1.000
    H263    H    0.83370   0.11370   0.09880   1.000
    H264    H    0.87320   0.07880   0.13130   1.000
    I49     I    0.14998   0.08680   0.98845   1.000
    Zn17    Zn   0.12515   0.09876   0.06105   1.000
    I50     I    0.10855   0.23940   0.09330   1.000
    N49     N    0.16595   0.03130   0.10779   1.000
    N50     N    0.07697   0.01580   0.05606   1.000
    C253    C    0.06365   0.96440   0.02123   1.000
    C254    C    0.05940   0.01190   0.08973   1.000
    C255    C    0.03266   0.90650   0.01970   1.000
    H265    H    0.07580   0.96740   0.99660   1.000
    C256    C    0.02860   0.95550   0.09114   1.000
    H266    H    0.06840   0.05010   0.11430   1.000
    H267    H    0.02380   0.87010   0.99440   1.000
    C257    C    0.01464   0.90210   0.05509   1.000
    H268    H    0.01720   0.95360   0.11640   1.000
    C258    C    0.98230   0.83910   0.05609   1.000
    N51     N    0.96069   0.85370   0.08608   1.000
    N52     N    0.97769   0.77130   0.02713   1.000
    C259    C    0.93234   0.79360   0.08590   1.000
    C260    C    0.94939   0.71330   0.03149   1.000
    C261    C    0.90673   0.80840   0.11764   1.000
    N53     N    0.92545   0.72210   0.05960   1.000
    C262    C    0.94508   0.63230   0.00298   1.000
    C263    C    0.91771   0.86770   0.15282   1.000
    C264    C    0.87148   0.76370   0.11302   1.000
    C265    C    0.97154   0.61300   0.97713   1.000
    C266    C    0.91348   0.57640   0.00111   1.000
    H269    H    0.94180   0.89900   0.15690   1.000
    C267    C    0.89293   0.88030   0.18177   1.000
    H270    H    0.86340   0.72200   0.08970   1.000
    C268    C    0.84832   0.78090   0.14304   1.000
    C269    C    0.96590   0.53790   0.95038   1.000
    H271    H    0.99340   0.65090   0.97770   1.000
    H272    H    0.89480   0.58730   0.01880   1.000
    C270    C    0.90979   0.50380   0.97259   1.000
    N54     N    0.85859   0.83760   0.17717   1.000
    H273    H    0.90050   0.92050   0.20580   1.000
    H274    H    0.82390   0.75120   0.13940   1.000
    N55     N    0.93511   0.48450   0.94755   1.000
    H275    H    0.98470   0.52400   0.93340   1.000
    H276    H    0.88780   0.46560   0.97090   1.000
    Zn18    Zn   0.82646   0.85430   0.22671   1.000
    Zn19    Zn   0.92229   0.37956   0.90234   1.000
    I51     I    0.87117   0.83336   0.30180   1.000
    I52     I    0.76460   0.76495   0.20360   1.000
    N56     N    0.81377   0.99200   0.21904   1.000
    N57     N    0.88159   0.44850   0.85564   1.000
    I53     I    0.88543   0.26380   0.94190   1.000
    I54     I    0.97793   0.34780   0.86862   1.000
    C271    C    0.84986   0.40940   0.83178   1.000
    C272    C    0.88975   0.53220   0.84620   1.000
    H277    H    0.84380   0.34950   0.83850   1.000
    C273    C    0.82546   0.45420   0.79737   1.000
    C274    C    0.86671   0.58180   0.81312   1.000
    H278    H    0.91250   0.55950   0.86310   1.000
    C275    C    0.83377   0.54200   0.78806   1.000
    H279    H    0.80330   0.42480   0.78040   1.000
    H280    H    0.87330   0.64190   0.80760   1.000
    C276    C    0.80906   0.59420   0.75228   1.000
    N58     N    0.81904   0.67967   0.74781   1.000
    N59     N    0.77826   0.55302   0.72760   1.000
    C277    C    0.79442   0.72550   0.71680   1.000
    C278    C    0.75749   0.60340   0.69526   1.000
    N60     N    0.76400   0.69050   0.68868   1.000
    C279    C    0.80141   0.82370   0.71584   1.000
    C280    C    0.72509   0.55800   0.66514   1.000
    C281    C    0.77535   0.88160   0.69011   1.000
    C282    C    0.83395   0.86060   0.74291   1.000
    C283    C    0.70320   0.60190   0.62850   1.000
    C284    C    0.71578   0.46960   0.67291   1.000
    H281    H    0.75280   0.85910   0.67080   1.000
    C285    C    0.78279   0.97320   0.69305   1.000
    C286    C    0.83935   0.95200   0.74315   1.000
    H282    H    0.85240   0.82310   0.76120   1.000
    C287    C    0.67453   0.55450   0.60073   1.000
    H283    H    0.70800   0.66310   0.62280   1.000
    C288    C    0.68612   0.42760   0.64365   1.000
    H284    H    0.72970   0.43840   0.69810   1.000
    H285    H    0.76470   0.01270   0.67550   1.000
    H286    H    0.86220   0.97630   0.76120   1.000
    H287    H    0.66010   0.58400   0.57530   1.000
    H288    H    0.67980   0.36730   0.64920   1.000
    C289    C    0.21950   0.70520   0.55910   1.000
    H289    H    0.21810   0.72420   0.58930   1.000
    H290    H    0.21200   0.75710   0.53910   1.000
    C290    C    0.25900   0.67900   0.55820   1.000
    H291    H    0.26120   0.66780   0.52730   1.000
    H292    H    0.27700   0.72870   0.56990   1.000
    C291    C    0.27090   0.59570   0.58530   1.000
    H293    H    0.27110   0.60890   0.61670   1.000
    H294    H    0.29760   0.57850   0.58290   1.000
    C292    C    0.24430   0.51990   0.57070   1.000
    H295    H    0.24490   0.50400   0.53980   1.000
    H296    H    0.25270   0.46690   0.58950   1.000
    C293    C    0.20390   0.54620   0.57400   1.000
    H297    H    0.18580   0.49550   0.56450   1.000
    H298    H    0.20320   0.56070   0.60500   1.000
    C294    C    0.19080   0.62800   0.54470   1.000
    H299    H    0.19010   0.61260   0.51340   1.000
    H300    H    0.16430   0.64630   0.54750   1.000
    I55     I    0.14812   0.08888   0.98974   1.000
    I56     I    0.10916   0.24265   0.10007   1.000
    I57     I    0.48169   0.13960   0.36598   1.000
    I58     I    0.38683   0.23869   0.43588   1.000
    Zn20    Zn   0.32270   0.64570   0.71860   1.000
    I59     I    0.36622   0.67990   0.79309   1.000
    I60     I    0.25713   0.72680   0.69160   1.000
    C295    C    0.22300   0.46100   0.55600   1.000
    C296    C    0.25900   0.41500   0.58500   1.000
    H301    H    0.25480   0.35740   0.59640   1.000
    C297    C    0.29600   0.45100   0.59700   1.000
    H302    H    0.31380   0.41260   0.61470   1.000
    C298    C    0.31200   0.53200   0.58700   1.000
    C299    C    0.29100   0.60400   0.56000   1.000
    H303    H    0.30690   0.65480   0.55660   1.000
    C300    C    0.25100   0.61200   0.53700   1.000
    C301    C    0.21900   0.54300   0.53600   1.000
    C302    C    0.18900   0.58200   0.51200   1.000
    H304    H    0.16370   0.55700   0.50400   1.000
    C303    C    0.20100   0.67000   0.49800   1.000
    H305    H    0.18240   0.70800   0.47970   1.000
    C304    C    0.23600   0.69200   0.51100   1.000
    C305    C    0.18900   0.40100   0.55200   1.000
    H306    H    0.19660   0.34570   0.56880   1.000
    H307    H    0.17900   0.38680   0.52110   1.000
    H308    H    0.16840   0.43120   0.56410   1.000
    C306    C    0.35500   0.54500   0.60600   1.000
    H309    H    0.36000   0.58230   0.63400   1.000
    C307    C    0.37300   0.59000   0.56900   1.000
    H310    H    0.40060   0.60050   0.57920   1.000
    H311    H    0.35950   0.64740   0.56020   1.000
    H312    H    0.36860   0.54990   0.54300   1.000
    C308    C    0.37700   0.44800   0.61300   1.000
    H313    H    0.40480   0.45710   0.62590   1.000
    H314    H    0.37400   0.41770   0.58480   1.000
    H315    H    0.36540   0.41160   0.63350   1.000
    C309    C    0.26200   0.77800   0.50600   1.000
    H316    H    0.28890   0.76740   0.52180   1.000
    H317    H    0.25150   0.83110   0.51730   1.000
    H318    H    0.26220   0.78670   0.47430   1.000
    C310    C    0.38620   0.34380   0.57540   1.000
    H319    H    0.37500   0.36770   0.54560   1.000
    H320    H    0.39110   0.27850   0.57410   1.000
    C311    C    0.42270   0.39860   0.60050   1.000
    H321    H    0.41870   0.46390   0.59530   1.000
    H322    H    0.44660   0.38000   0.59070   1.000
    C312    C    0.42550   0.37670   0.64810   1.000
    H323    H    0.45310   0.38160   0.66360   1.000
    H324    H    0.41050   0.42170   0.66110   1.000
    C313    C    0.41010   0.27940   0.65640   1.000
    H325    H    0.42250   0.23330   0.64090   1.000
    H326    H    0.41570   0.26520   0.68840   1.000
    C314    C    0.36410   0.28260   0.63730   1.000
    H327    H    0.34920   0.28390   0.66120   1.000
    H328    H    0.35520   0.23130   0.61740   1.000
    C315    C    0.36110   0.37100   0.61230   1.000
    H329    H    0.33370   0.38630   0.59880   1.000
    H330    H    0.37320   0.42120   0.63130   1.000
    I61     I    0.64998   0.58680   0.98845   1.000
    Zn21    Zn   0.62515   0.59876   0.06105   1.000
    I62     I    0.60855   0.73940   0.09330   1.000
    N61     N    0.66595   0.53130   0.10779   1.000
    N62     N    0.57697   0.51580   0.05606   1.000
    C316    C    0.56365   0.46440   0.02123   1.000
    C317    C    0.55940   0.51190   0.08973   1.000
    C318    C    0.53266   0.40650   0.01970   1.000
    H331    H    0.57580   0.46740   0.99660   1.000
    C319    C    0.52860   0.45550   0.09114   1.000
    H332    H    0.56840   0.55010   0.11430   1.000
    H333    H    0.52380   0.37010   0.99440   1.000
    C320    C    0.51464   0.40210   0.05509   1.000
    H334    H    0.51720   0.45360   0.11640   1.000
    C321    C    0.48230   0.33910   0.05609   1.000
    N63     N    0.46069   0.35370   0.08608   1.000
    N64     N    0.47769   0.27130   0.02713   1.000
    C322    C    0.43234   0.29360   0.08590   1.000
    C323    C    0.44939   0.21330   0.03149   1.000
    C324    C    0.40673   0.30840   0.11764   1.000
    N65     N    0.42545   0.22210   0.05960   1.000
    C325    C    0.44508   0.13230   0.00298   1.000
    C326    C    0.41771   0.36770   0.15282   1.000
    C327    C    0.37148   0.26370   0.11302   1.000
    C328    C    0.47154   0.11300   0.97713   1.000
    C329    C    0.41348   0.07640   0.00111   1.000
    H335    H    0.44180   0.39900   0.15690   1.000
    C330    C    0.39293   0.38030   0.18177   1.000
    H336    H    0.36340   0.22200   0.08970   1.000
    C331    C    0.34832   0.28090   0.14304   1.000
    C332    C    0.46590   0.03790   0.95038   1.000
    H337    H    0.49340   0.15090   0.97770   1.000
    H338    H    0.39480   0.08730   0.01880   1.000
    C333    C    0.40979   0.00380   0.97259   1.000
    N66     N    0.35859   0.33760   0.17717   1.000
    H339    H    0.40050   0.42050   0.20580   1.000
    H340    H    0.32390   0.25120   0.13940   1.000
    N67     N    0.43511   0.98450   0.94755   1.000
    H341    H    0.48470   0.02400   0.93340   1.000
    H342    H    0.38780   0.96560   0.97090   1.000
    Zn22    Zn   0.32646   0.35430   0.22671   1.000
    Zn23    Zn   0.42229   0.87956   0.90234   1.000
    I63     I    0.37117   0.33336   0.30180   1.000
    I64     I    0.26460   0.26495   0.20360   1.000
    N68     N    0.31377   0.49200   0.21904   1.000
    N69     N    0.38159   0.94850   0.85564   1.000
    I65     I    0.38543   0.76380   0.94190   1.000
    I66     I    0.47793   0.84780   0.86862   1.000
    C334    C    0.34986   0.90940   0.83178   1.000
    C335    C    0.38975   0.03220   0.84620   1.000
    H343    H    0.34380   0.84950   0.83850   1.000
    C336    C    0.32546   0.95420   0.79737   1.000
    C337    C    0.36671   0.08180   0.81312   1.000
    H344    H    0.41250   0.05950   0.86310   1.000
    C338    C    0.33377   0.04200   0.78806   1.000
    H345    H    0.30330   0.92480   0.78040   1.000
    H346    H    0.37330   0.14190   0.80760   1.000
    C339    C    0.30906   0.09420   0.75228   1.000
    N70     N    0.31904   0.17967   0.74781   1.000
    N71     N    0.27826   0.05302   0.72760   1.000
    C340    C    0.29442   0.22550   0.71680   1.000
    C341    C    0.25749   0.10340   0.69526   1.000
    N72     N    0.26400   0.19050   0.68868   1.000
    C342    C    0.30141   0.32370   0.71584   1.000
    C343    C    0.22509   0.05800   0.66514   1.000
    C344    C    0.27535   0.38160   0.69011   1.000
    C345    C    0.33395   0.36060   0.74291   1.000
    C346    C    0.20320   0.10190   0.62850   1.000
    C347    C    0.21578   0.96960   0.67291   1.000
    H347    H    0.25280   0.35910   0.67080   1.000
    C348    C    0.28279   0.47320   0.69305   1.000
    C349    C    0.33935   0.45200   0.74315   1.000
    H348    H    0.35240   0.32310   0.76120   1.000
    C350    C    0.17453   0.05450   0.60073   1.000
    H349    H    0.20800   0.16310   0.62280   1.000
    C351    C    0.18612   0.92760   0.64365   1.000
    H350    H    0.22970   0.93840   0.69810   1.000
    H351    H    0.26470   0.51270   0.67550   1.000
    H352    H    0.36220   0.47630   0.76120   1.000
    H353    H    0.16010   0.08400   0.57530   1.000
    H354    H    0.17980   0.86730   0.64920   1.000
    C352    C    0.71950   0.20520   0.55910   1.000
    H355    H    0.71810   0.22420   0.58930   1.000
    H356    H    0.71200   0.25710   0.53910   1.000
    C353    C    0.75900   0.17900   0.55820   1.000
    H357    H    0.76120   0.16780   0.52730   1.000
    H358    H    0.77700   0.22870   0.56990   1.000
    C354    C    0.77090   0.09570   0.58530   1.000
    H359    H    0.77110   0.10890   0.61670   1.000
    H360    H    0.79760   0.07850   0.58290   1.000
    C355    C    0.74430   0.01990   0.57070   1.000
    H361    H    0.74490   0.00400   0.53980   1.000
    H362    H    0.75270   0.96690   0.58950   1.000
    C356    C    0.70390   0.04620   0.57400   1.000
    H363    H    0.68580   0.99550   0.56450   1.000
    H364    H    0.70320   0.06070   0.60500   1.000
    C357    C    0.69080   0.12800   0.54470   1.000
    H365    H    0.69010   0.11260   0.51340   1.000
    H366    H    0.66430   0.14630   0.54750   1.000
    I67     I    0.64812   0.58888   0.98974   1.000
    I68     I    0.60916   0.74265   0.10007   1.000
    I69     I    0.98169   0.63960   0.36598   1.000
    I70     I    0.88683   0.73869   0.43588   1.000
    Zn24    Zn   0.82270   0.14570   0.71860   1.000
    I71     I    0.86622   0.17990   0.79309   1.000
    I72     I    0.75713   0.22680   0.69160   1.000
    C358    C    0.72300   0.96100   0.55600   1.000
    C359    C    0.75900   0.91500   0.58500   1.000
    H367    H    0.75480   0.85740   0.59640   1.000
    C360    C    0.79600   0.95100   0.59700   1.000
    H368    H    0.81380   0.91260   0.61470   1.000
    C361    C    0.81200   0.03200   0.58700   1.000
    C362    C    0.79100   0.10400   0.56000   1.000
    H369    H    0.80690   0.15480   0.55660   1.000
    C363    C    0.75100   0.11200   0.53700   1.000
    C364    C    0.71900   0.04300   0.53600   1.000
    C365    C    0.68900   0.08200   0.51200   1.000
    H370    H    0.66370   0.05700   0.50400   1.000
    C366    C    0.70100   0.17000   0.49800   1.000
    H371    H    0.68240   0.20800   0.47970   1.000
    C367    C    0.73600   0.19200   0.51100   1.000
    C368    C    0.68900   0.90100   0.55200   1.000
    H372    H    0.69660   0.84570   0.56880   1.000
    H373    H    0.67900   0.88680   0.52110   1.000
    H374    H    0.66840   0.93120   0.56410   1.000
    C369    C    0.85500   0.04500   0.60600   1.000
    H375    H    0.86000   0.08230   0.63400   1.000
    C370    C    0.87300   0.09000   0.56900   1.000
    H376    H    0.90060   0.10050   0.57920   1.000
    H377    H    0.85950   0.14740   0.56020   1.000
    H378    H    0.86860   0.04990   0.54300   1.000
    C371    C    0.87700   0.94800   0.61300   1.000
    H379    H    0.90480   0.95710   0.62590   1.000
    H380    H    0.87400   0.91770   0.58480   1.000
    H381    H    0.86540   0.91160   0.63350   1.000
    C372    C    0.76200   0.27800   0.50600   1.000
    H382    H    0.78890   0.26740   0.52180   1.000
    H383    H    0.75150   0.33110   0.51730   1.000
    H384    H    0.76220   0.28670   0.47430   1.000
    C373    C    0.88620   0.84380   0.57540   1.000
    H385    H    0.87500   0.86770   0.54560   1.000
    H386    H    0.89110   0.77850   0.57410   1.000
    C374    C    0.92270   0.89860   0.60050   1.000
    H387    H    0.91870   0.96390   0.59530   1.000
    H388    H    0.94660   0.88000   0.59070   1.000
    C375    C    0.92550   0.87670   0.64810   1.000
    H389    H    0.95310   0.88160   0.66360   1.000
    H390    H    0.91050   0.92170   0.66110   1.000
    C376    C    0.91010   0.77940   0.65640   1.000
    H391    H    0.92250   0.73330   0.64090   1.000
    H392    H    0.91570   0.76520   0.68840   1.000
    C377    C    0.86410   0.78260   0.63730   1.000
    H393    H    0.84920   0.78390   0.66120   1.000
    H394    H    0.85520   0.73130   0.61740   1.000
    C378    C    0.86110   0.87100   0.61230   1.000
    H395    H    0.83370   0.88630   0.59880   1.000
    H396    H    0.87320   0.92120   0.63130   1.000
    I73     I    0.85002   0.08680   0.51155   1.000
    Zn25    Zn   0.87485   0.09876   0.43895   1.000
    I74     I    0.89145   0.23940   0.40670   1.000
    N73     N    0.83405   0.03130   0.39221   1.000
    N74     N    0.92303   0.01580   0.44394   1.000
    C379    C    0.93635   0.96440   0.47877   1.000
    C380    C    0.94060   0.01190   0.41027   1.000
    C381    C    0.96734   0.90650   0.48030   1.000
    H397    H    0.92420   0.96740   0.50340   1.000
    C382    C    0.97140   0.95550   0.40886   1.000
    H398    H    0.93160   0.05010   0.38570   1.000
    H399    H    0.97620   0.87010   0.50560   1.000
    C383    C    0.98536   0.90210   0.44491   1.000
    H400    H    0.98280   0.95360   0.38360   1.000
    C384    C    0.01770   0.83910   0.44391   1.000
    N75     N    0.03931   0.85370   0.41392   1.000
    N76     N    0.02231   0.77130   0.47287   1.000
    C385    C    0.06766   0.79360   0.41410   1.000
    C386    C    0.05061   0.71330   0.46851   1.000
    C387    C    0.09327   0.80840   0.38236   1.000
    N77     N    0.07455   0.72210   0.44040   1.000
    C388    C    0.05492   0.63230   0.49702   1.000
    C389    C    0.08229   0.86770   0.34718   1.000
    C390    C    0.12852   0.76370   0.38698   1.000
    C391    C    0.02846   0.61300   0.52287   1.000
    C392    C    0.08652   0.57640   0.49889   1.000
    H401    H    0.05820   0.89900   0.34310   1.000
    C393    C    0.10707   0.88030   0.31823   1.000
    H402    H    0.13660   0.72200   0.41030   1.000
    C394    C    0.15168   0.78090   0.35696   1.000
    C395    C    0.03410   0.53790   0.54962   1.000
    H403    H    0.00660   0.65090   0.52230   1.000
    H404    H    0.10520   0.58730   0.48120   1.000
    C396    C    0.09021   0.50380   0.52741   1.000
    N78     N    0.14141   0.83760   0.32283   1.000
    H405    H    0.09950   0.92050   0.29420   1.000
    H406    H    0.17610   0.75120   0.36060   1.000
    N79     N    0.06489   0.48450   0.55245   1.000
    H407    H    0.01530   0.52400   0.56660   1.000
    H408    H    0.11220   0.46560   0.52910   1.000
    Zn26    Zn   0.17354   0.85430   0.27329   1.000
    Zn27    Zn   0.07771   0.37956   0.59766   1.000
    I75     I    0.12883   0.83336   0.19820   1.000
    I76     I    0.23540   0.76495   0.29640   1.000
    N80     N    0.18623   0.99200   0.28096   1.000
    N81     N    0.11841   0.44850   0.64436   1.000
    I77     I    0.11457   0.26380   0.55810   1.000
    I78     I    0.02207   0.34780   0.63138   1.000
    C397    C    0.15014   0.40940   0.66822   1.000
    C398    C    0.11025   0.53220   0.65380   1.000
    H409    H    0.15620   0.34950   0.66150   1.000
    C399    C    0.17454   0.45420   0.70263   1.000
    C400    C    0.13329   0.58180   0.68688   1.000
    H410    H    0.08750   0.55950   0.63690   1.000
    C401    C    0.16623   0.54200   0.71194   1.000
    H411    H    0.19670   0.42480   0.71960   1.000
    H412    H    0.12670   0.64190   0.69240   1.000
    C402    C    0.19094   0.59420   0.74772   1.000
    N82     N    0.18096   0.67967   0.75219   1.000
    N83     N    0.22174   0.55302   0.77240   1.000
    C403    C    0.20558   0.72550   0.78320   1.000
    C404    C    0.24251   0.60340   0.80474   1.000
    N84     N    0.23600   0.69050   0.81132   1.000
    C405    C    0.19859   0.82370   0.78416   1.000
    C406    C    0.27491   0.55800   0.83486   1.000
    C407    C    0.22465   0.88160   0.80989   1.000
    C408    C    0.16605   0.86060   0.75709   1.000
    C409    C    0.29680   0.60190   0.87150   1.000
    C410    C    0.28422   0.46960   0.82709   1.000
    H413    H    0.24720   0.85910   0.82920   1.000
    C411    C    0.21721   0.97320   0.80695   1.000
    C412    C    0.16065   0.95200   0.75685   1.000
    H414    H    0.14760   0.82310   0.73880   1.000
    C413    C    0.32547   0.55450   0.89927   1.000
    H415    H    0.29200   0.66310   0.87720   1.000
    C414    C    0.31388   0.42760   0.85635   1.000
    H416    H    0.27030   0.43840   0.80190   1.000
    H417    H    0.23530   0.01270   0.82450   1.000
    H418    H    0.13780   0.97630   0.73880   1.000
    H419    H    0.33990   0.58400   0.92470   1.000
    H420    H    0.32020   0.36730   0.85080   1.000
    C415    C    0.78050   0.70520   0.94090   1.000
    H421    H    0.78190   0.72420   0.91070   1.000
    H422    H    0.78800   0.75710   0.96090   1.000
    C416    C    0.74100   0.67900   0.94180   1.000
    H423    H    0.73880   0.66780   0.97270   1.000
    H424    H    0.72300   0.72870   0.93010   1.000
    C417    C    0.72910   0.59570   0.91470   1.000
    H425    H    0.72890   0.60890   0.88330   1.000
    H426    H    0.70240   0.57850   0.91710   1.000
    C418    C    0.75570   0.51990   0.92930   1.000
    H427    H    0.75510   0.50400   0.96020   1.000
    H428    H    0.74730   0.46690   0.91050   1.000
    C419    C    0.79610   0.54620   0.92600   1.000
    H429    H    0.81420   0.49550   0.93550   1.000
    H430    H    0.79680   0.56070   0.89500   1.000
    C420    C    0.80920   0.62800   0.95530   1.000
    H431    H    0.80990   0.61260   0.98660   1.000
    H432    H    0.83570   0.64630   0.95250   1.000
    I79     I    0.85188   0.08888   0.51026   1.000
    I80     I    0.89084   0.24265   0.39993   1.000
    I81     I    0.51831   0.13960   0.13402   1.000
    I82     I    0.61317   0.23869   0.06412   1.000
    Zn28    Zn   0.67730   0.64570   0.78140   1.000
    I83     I    0.63378   0.67990   0.70691   1.000
    I84     I    0.74287   0.72680   0.80840   1.000
    C421    C    0.77700   0.46100   0.94400   1.000
    C422    C    0.74100   0.41500   0.91500   1.000
    H433    H    0.74520   0.35740   0.90360   1.000
    C423    C    0.70400   0.45100   0.90300   1.000
    H434    H    0.68620   0.41260   0.88530   1.000
    C424    C    0.68800   0.53200   0.91300   1.000
    C425    C    0.70900   0.60400   0.94000   1.000
    H435    H    0.69310   0.65480   0.94340   1.000
    C426    C    0.74900   0.61200   0.96300   1.000
    C427    C    0.78100   0.54300   0.96400   1.000
    C428    C    0.81100   0.58200   0.98800   1.000
    H436    H    0.83630   0.55700   0.99600   1.000
    C429    C    0.79900   0.67000   0.00200   1.000
    H437    H    0.81760   0.70800   0.02030   1.000
    C430    C    0.76400   0.69200   0.98900   1.000
    C431    C    0.81100   0.40100   0.94800   1.000
    H438    H    0.80340   0.34570   0.93120   1.000
    H439    H    0.82100   0.38680   0.97890   1.000
    H440    H    0.83160   0.43120   0.93590   1.000
    C432    C    0.64500   0.54500   0.89400   1.000
    H441    H    0.64000   0.58230   0.86600   1.000
    C433    C    0.62700   0.59000   0.93100   1.000
    H442    H    0.59940   0.60050   0.92080   1.000
    H443    H    0.64050   0.64740   0.93980   1.000
    H444    H    0.63140   0.54990   0.95700   1.000
    C434    C    0.62300   0.44800   0.88700   1.000
    H445    H    0.59520   0.45710   0.87410   1.000
    H446    H    0.62600   0.41770   0.91520   1.000
    H447    H    0.63460   0.41160   0.86650   1.000
    C435    C    0.73800   0.77800   0.99400   1.000
    H448    H    0.71110   0.76740   0.97820   1.000
    H449    H    0.74850   0.83110   0.98270   1.000
    H450    H    0.73780   0.78670   0.02570   1.000
    C436    C    0.61380   0.34380   0.92460   1.000
    H451    H    0.62500   0.36770   0.95440   1.000
    H452    H    0.60890   0.27850   0.92590   1.000
    C437    C    0.57730   0.39860   0.89950   1.000
    H453    H    0.58130   0.46390   0.90470   1.000
    H454    H    0.55340   0.38000   0.90930   1.000
    C438    C    0.57450   0.37670   0.85190   1.000
    H455    H    0.54690   0.38160   0.83640   1.000
    H456    H    0.58950   0.42170   0.83890   1.000
    C439    C    0.58990   0.27940   0.84360   1.000
    H457    H    0.57750   0.23330   0.85910   1.000
    H458    H    0.58430   0.26520   0.81160   1.000
    C440    C    0.63590   0.28260   0.86270   1.000
    H459    H    0.65080   0.28390   0.83880   1.000
    H460    H    0.64480   0.23130   0.88260   1.000
    C441    C    0.63890   0.37100   0.88770   1.000
    H461    H    0.66630   0.38630   0.90120   1.000
    H462    H    0.62680   0.42120   0.86870   1.000
    I85     I    0.35002   0.58680   0.51155   1.000
    Zn29    Zn   0.37485   0.59876   0.43895   1.000
    I86     I    0.39145   0.73940   0.40670   1.000
    N85     N    0.33405   0.53130   0.39221   1.000
    N86     N    0.42303   0.51580   0.44394   1.000
    C442    C    0.43635   0.46440   0.47877   1.000
    C443    C    0.44060   0.51190   0.41027   1.000
    C444    C    0.46734   0.40650   0.48030   1.000
    H463    H    0.42420   0.46740   0.50340   1.000
    C445    C    0.47140   0.45550   0.40886   1.000
    H464    H    0.43160   0.55010   0.38570   1.000
    H465    H    0.47620   0.37010   0.50560   1.000
    C446    C    0.48536   0.40210   0.44491   1.000
    H466    H    0.48280   0.45360   0.38360   1.000
    C447    C    0.51770   0.33910   0.44391   1.000
    N87     N    0.53931   0.35370   0.41392   1.000
    N88     N    0.52231   0.27130   0.47287   1.000
    C448    C    0.56766   0.29360   0.41410   1.000
    C449    C    0.55061   0.21330   0.46851   1.000
    C450    C    0.59327   0.30840   0.38236   1.000
    N89     N    0.57455   0.22210   0.44040   1.000
    C451    C    0.55492   0.13230   0.49702   1.000
    C452    C    0.58229   0.36770   0.34718   1.000
    C453    C    0.62852   0.26370   0.38698   1.000
    C454    C    0.52846   0.11300   0.52287   1.000
    C455    C    0.58652   0.07640   0.49889   1.000
    H467    H    0.55820   0.39900   0.34310   1.000
    C456    C    0.60707   0.38030   0.31823   1.000
    H468    H    0.63660   0.22200   0.41030   1.000
    C457    C    0.65168   0.28090   0.35696   1.000
    C458    C    0.53410   0.03790   0.54962   1.000
    H469    H    0.50660   0.15090   0.52230   1.000
    H470    H    0.60520   0.08730   0.48120   1.000
    C459    C    0.59021   0.00380   0.52741   1.000
    N90     N    0.64141   0.33760   0.32283   1.000
    H471    H    0.59950   0.42050   0.29420   1.000
    H472    H    0.67610   0.25120   0.36060   1.000
    N91     N    0.56489   0.98450   0.55245   1.000
    H473    H    0.51530   0.02400   0.56660   1.000
    H474    H    0.61220   0.96560   0.52910   1.000
    Zn30    Zn   0.67354   0.35430   0.27329   1.000
    Zn31    Zn   0.57771   0.87956   0.59766   1.000
    I87     I    0.62883   0.33336   0.19820   1.000
    I88     I    0.73540   0.26495   0.29640   1.000
    N92     N    0.68623   0.49200   0.28096   1.000
    N93     N    0.61841   0.94850   0.64436   1.000
    I89     I    0.61457   0.76380   0.55810   1.000
    I90     I    0.52207   0.84780   0.63138   1.000
    C460    C    0.65014   0.90940   0.66822   1.000
    C461    C    0.61025   0.03220   0.65380   1.000
    H475    H    0.65620   0.84950   0.66150   1.000
    C462    C    0.67454   0.95420   0.70263   1.000
    C463    C    0.63329   0.08180   0.68688   1.000
    H476    H    0.58750   0.05950   0.63690   1.000
    C464    C    0.66623   0.04200   0.71194   1.000
    H477    H    0.69670   0.92480   0.71960   1.000
    H478    H    0.62670   0.14190   0.69240   1.000
    C465    C    0.69094   0.09420   0.74772   1.000
    N94     N    0.68096   0.17967   0.75219   1.000
    N95     N    0.72174   0.05302   0.77240   1.000
    C466    C    0.70558   0.22550   0.78320   1.000
    C467    C    0.74251   0.10340   0.80474   1.000
    N96     N    0.73600   0.19050   0.81132   1.000
    C468    C    0.69859   0.32370   0.78416   1.000
    C469    C    0.77491   0.05800   0.83486   1.000
    C470    C    0.72465   0.38160   0.80989   1.000
    C471    C    0.66605   0.36060   0.75709   1.000
    C472    C    0.79680   0.10190   0.87150   1.000
    C473    C    0.78422   0.96960   0.82709   1.000
    H479    H    0.74720   0.35910   0.82920   1.000
    C474    C    0.71721   0.47320   0.80695   1.000
    C475    C    0.66065   0.45200   0.75685   1.000
    H480    H    0.64760   0.32310   0.73880   1.000
    C476    C    0.82547   0.05450   0.89927   1.000
    H481    H    0.79200   0.16310   0.87720   1.000
    C477    C    0.81388   0.92760   0.85635   1.000
    H482    H    0.77030   0.93840   0.80190   1.000
    H483    H    0.73530   0.51270   0.82450   1.000
    H484    H    0.63780   0.47630   0.73880   1.000
    H485    H    0.83990   0.08400   0.92470   1.000
    H486    H    0.82020   0.86730   0.85080   1.000
    C478    C    0.28050   0.20520   0.94090   1.000
    H487    H    0.28190   0.22420   0.91070   1.000
    H488    H    0.28800   0.25710   0.96090   1.000
    C479    C    0.24100   0.17900   0.94180   1.000
    H489    H    0.23880   0.16780   0.97270   1.000
    H490    H    0.22300   0.22870   0.93010   1.000
    C480    C    0.22910   0.09570   0.91470   1.000
    H491    H    0.22890   0.10890   0.88330   1.000
    H492    H    0.20240   0.07850   0.91710   1.000
    C481    C    0.25570   0.01990   0.92930   1.000
    H493    H    0.25510   0.00400   0.96020   1.000
    H494    H    0.24730   0.96690   0.91050   1.000
    C482    C    0.29610   0.04620   0.92600   1.000
    H495    H    0.31420   0.99550   0.93550   1.000
    H496    H    0.29680   0.06070   0.89500   1.000
    C483    C    0.30920   0.12800   0.95530   1.000
    H497    H    0.30990   0.11260   0.98660   1.000
    H498    H    0.33570   0.14630   0.95250   1.000
    I91     I    0.35188   0.58888   0.51026   1.000
    I92     I    0.39084   0.74265   0.39993   1.000
    I93     I    0.01831   0.63960   0.13402   1.000
    I94     I    0.11317   0.73869   0.06412   1.000
    Zn32    Zn   0.17730   0.14570   0.78140   1.000
    I95     I    0.13378   0.17990   0.70691   1.000
    I96     I    0.24287   0.22680   0.80840   1.000
    C484    C    0.27700   0.96100   0.94400   1.000
    C485    C    0.24100   0.91500   0.91500   1.000
    H499    H    0.24520   0.85740   0.90360   1.000
    C486    C    0.20400   0.95100   0.90300   1.000
    H500    H    0.18620   0.91260   0.88530   1.000
    C487    C    0.18800   0.03200   0.91300   1.000
    C488    C    0.20900   0.10400   0.94000   1.000
    H501    H    0.19310   0.15480   0.94340   1.000
    C489    C    0.24900   0.11200   0.96300   1.000
    C490    C    0.28100   0.04300   0.96400   1.000
    C491    C    0.31100   0.08200   0.98800   1.000
    H502    H    0.33630   0.05700   0.99600   1.000
    C492    C    0.29900   0.17000   0.00200   1.000
    H503    H    0.31760   0.20800   0.02030   1.000
    C493    C    0.26400   0.19200   0.98900   1.000
    C494    C    0.31100   0.90100   0.94800   1.000
    H504    H    0.30340   0.84570   0.93120   1.000
    H505    H    0.32100   0.88680   0.97890   1.000
    H506    H    0.33160   0.93120   0.93590   1.000
    C495    C    0.14500   0.04500   0.89400   1.000
    H507    H    0.14000   0.08230   0.86600   1.000
    C496    C    0.12700   0.09000   0.93100   1.000
    H508    H    0.09940   0.10050   0.92080   1.000
    H509    H    0.14050   0.14740   0.93980   1.000
    H510    H    0.13140   0.04990   0.95700   1.000
    C497    C    0.12300   0.94800   0.88700   1.000
    H511    H    0.09520   0.95710   0.87410   1.000
    H512    H    0.12600   0.91770   0.91520   1.000
    H513    H    0.13460   0.91160   0.86650   1.000
    C498    C    0.23800   0.27800   0.99400   1.000
    H514    H    0.21110   0.26740   0.97820   1.000
    H515    H    0.24850   0.33110   0.98270   1.000
    H516    H    0.23780   0.28670   0.02570   1.000
    C499    C    0.11380   0.84380   0.92460   1.000
    H517    H    0.12500   0.86770   0.95440   1.000
    H518    H    0.10890   0.77850   0.92590   1.000
    C500    C    0.07730   0.89860   0.89950   1.000
    H519    H    0.08130   0.96390   0.90470   1.000
    H520    H    0.05340   0.88000   0.90930   1.000
    C501    C    0.07450   0.87670   0.85190   1.000
    H521    H    0.04690   0.88160   0.83640   1.000
    H522    H    0.08950   0.92170   0.83890   1.000
    C502    C    0.08990   0.77940   0.84360   1.000
    H523    H    0.07750   0.73330   0.85910   1.000
    H524    H    0.08430   0.76520   0.81160   1.000
    C503    C    0.13590   0.78260   0.86270   1.000
    H525    H    0.15080   0.78390   0.83880   1.000
    H526    H    0.14480   0.73130   0.88260   1.000
    C504    C    0.13890   0.87100   0.88770   1.000
    H527    H    0.16630   0.88630   0.90120   1.000
    H528    H    0.12680   0.92120   0.86870   1.000
