# CIF file generated by openbabel 2.4.1, see http://openbabel.sf.net
data_I
_chemical_name_common 'image0'
_cell_length_a 15.1635
_cell_length_b 17.9739
_cell_length_c 10.0176
_cell_angle_alpha 90
_cell_angle_beta 90
_cell_angle_gamma 90
_space_group_name_H-M_alt 'P 1'
_space_group_name_Hall 'P 1'
loop_
    _symmetry_equiv_pos_as_xyz
    x,y,z
loop_
    _atom_site_label
    _atom_site_type_symbol
    _atom_site_fract_x
    _atom_site_fract_y
    _atom_site_fract_z
    _atom_site_occupancy
    Zn1     Zn   0.95159   0.33713   0.83780   1.000
    N1      N    0.82120   0.34513   0.80450   1.000
    N2      N    0.98820   0.44081   0.87850   1.000
    N3      N    0.99970   0.20417   0.16780   1.000
    N4      N    0.97050   0.26874   0.99220   1.000
    C1      C    0.09590   0.31370   0.13180   1.000
    H1      H    0.09990   0.35260   0.06640   1.000
    H2      H    0.15020   0.28620   0.13340   1.000
    H3      H    0.08540   0.33510   0.21820   1.000
    C2      C    0.02210   0.26300   0.09680   1.000
    N5      N    0.79290   0.35130   0.67590   1.000
    N6      N    0.91370   0.20911   0.99710   1.000
    N7      N    0.93140   0.17162   0.10250   1.000
    N8      N    0.99300   0.46453   0.00680   1.000
    H4      H    0.00930   0.54970   0.62590   1.000
    H5      H    0.94430   0.48190   0.62590   1.000
    H6      H    0.04640   0.46830   0.62590   1.000
    H7      H    0.69030   0.33740   0.06010   1.000
    H8      H    0.78000   0.38060   0.06390   1.000
    H9      H    0.77960   0.29350   0.05620   1.000
    Zn2     Zn   0.95159   0.83713   0.33780   1.000
    N9      N    0.82120   0.84513   0.30450   1.000
    N10     N    0.98820   0.94081   0.37850   1.000
    N11     N    0.99970   0.70417   0.66780   1.000
    N12     N    0.97050   0.76874   0.49220   1.000
    C3      C    0.09590   0.81370   0.63180   1.000
    H10     H    0.09990   0.85260   0.56640   1.000
    H11     H    0.15020   0.78620   0.63340   1.000
    H12     H    0.08540   0.83510   0.71820   1.000
    C4      C    0.02210   0.76300   0.59680   1.000
    N13     N    0.79290   0.85130   0.17590   1.000
    N14     N    0.91370   0.70911   0.49710   1.000
    N15     N    0.93140   0.67162   0.60250   1.000
    N16     N    0.99300   0.96453   0.50680   1.000
    H13     H    0.00930   0.04970   0.12590   1.000
    H14     H    0.94430   0.98190   0.12590   1.000
    H15     H    0.04640   0.96830   0.12590   1.000
    H16     H    0.69030   0.83740   0.56010   1.000
    H17     H    0.78000   0.88060   0.56390   1.000
    H18     H    0.77960   0.79350   0.55620   1.000
    Zn3     Zn   0.04841   0.66287   0.83780   1.000
    N17     N    0.17880   0.65487   0.80450   1.000
    N18     N    0.01180   0.55919   0.87850   1.000
    N19     N    0.00030   0.79583   0.16780   1.000
    N20     N    0.02950   0.73126   0.99220   1.000
    C5      C    0.90410   0.68630   0.13180   1.000
    H19     H    0.90010   0.64740   0.06640   1.000
    H20     H    0.84980   0.71380   0.13340   1.000
    H21     H    0.91460   0.66490   0.21820   1.000
    C6      C    0.97790   0.73700   0.09680   1.000
    N21     N    0.20710   0.64870   0.67590   1.000
    N22     N    0.08630   0.79089   0.99710   1.000
    N23     N    0.06860   0.82838   0.10250   1.000
    N24     N    0.00700   0.53547   0.00680   1.000
    H22     H    0.99070   0.45030   0.62590   1.000
    H23     H    0.05570   0.51810   0.62590   1.000
    H24     H    0.95360   0.53170   0.62590   1.000
    H25     H    0.30970   0.66260   0.06010   1.000
    H26     H    0.22000   0.61940   0.06390   1.000
    H27     H    0.22040   0.70650   0.05620   1.000
    Zn4     Zn   0.04841   0.16287   0.33780   1.000
    N25     N    0.17880   0.15487   0.30450   1.000
    N26     N    0.01180   0.05919   0.37850   1.000
    N27     N    0.00030   0.29583   0.66780   1.000
    N28     N    0.02950   0.23126   0.49220   1.000
    C7      C    0.90410   0.18630   0.63180   1.000
    H28     H    0.90010   0.14740   0.56640   1.000
    H29     H    0.84980   0.21380   0.63340   1.000
    H30     H    0.91460   0.16490   0.71820   1.000
    C8      C    0.97790   0.23700   0.59680   1.000
    N29     N    0.20710   0.14870   0.17590   1.000
    N30     N    0.08630   0.29089   0.49710   1.000
    N31     N    0.06860   0.32838   0.60250   1.000
    N32     N    0.00700   0.03547   0.50680   1.000
    H31     H    0.99070   0.95030   0.12590   1.000
    H32     H    0.05570   0.01810   0.12590   1.000
    H33     H    0.95360   0.03170   0.12590   1.000
    H34     H    0.30970   0.16260   0.56010   1.000
    H35     H    0.22000   0.11940   0.56390   1.000
    H36     H    0.22040   0.20650   0.55620   1.000
    Zn5     Zn   0.45159   0.66287   0.83780   1.000
    N33     N    0.32120   0.65487   0.80450   1.000
    N34     N    0.48820   0.55919   0.87850   1.000
    N35     N    0.49970   0.79583   0.16780   1.000
    N36     N    0.47050   0.73126   0.99220   1.000
    C9      C    0.59590   0.68630   0.13180   1.000
    H37     H    0.59990   0.64740   0.06640   1.000
    H38     H    0.65020   0.71380   0.13340   1.000
    H39     H    0.58540   0.66490   0.21820   1.000
    C10     C    0.52210   0.73700   0.09680   1.000
    N37     N    0.29290   0.64870   0.67590   1.000
    N38     N    0.41370   0.79089   0.99710   1.000
    N39     N    0.43140   0.82838   0.10250   1.000
    N40     N    0.49300   0.53547   0.00680   1.000
    H40     H    0.50930   0.45030   0.62590   1.000
    H41     H    0.44430   0.51810   0.62590   1.000
    H42     H    0.54640   0.53170   0.62590   1.000
    H43     H    0.19030   0.66260   0.06010   1.000
    H44     H    0.28000   0.61940   0.06390   1.000
    H45     H    0.27960   0.70650   0.05620   1.000
    Zn6     Zn   0.45159   0.16287   0.33780   1.000
    N41     N    0.32120   0.15487   0.30450   1.000
    N42     N    0.48820   0.05919   0.37850   1.000
    N43     N    0.49970   0.29583   0.66780   1.000
    N44     N    0.47050   0.23126   0.49220   1.000
    C11     C    0.59590   0.18630   0.63180   1.000
    H46     H    0.59990   0.14740   0.56640   1.000
    H47     H    0.65020   0.21380   0.63340   1.000
    H48     H    0.58540   0.16490   0.71820   1.000
    C12     C    0.52210   0.23700   0.59680   1.000
    N45     N    0.29290   0.14870   0.17590   1.000
    N46     N    0.41370   0.29089   0.49710   1.000
    N47     N    0.43140   0.32838   0.60250   1.000
    N48     N    0.49300   0.03547   0.50680   1.000
    H49     H    0.50930   0.95030   0.12590   1.000
    H50     H    0.44430   0.01810   0.12590   1.000
    H51     H    0.54640   0.03170   0.12590   1.000
    H52     H    0.19030   0.16260   0.56010   1.000
    H53     H    0.28000   0.11940   0.56390   1.000
    H54     H    0.27960   0.20650   0.55620   1.000
    Zn7     Zn   0.54841   0.33713   0.83780   1.000
    N49     N    0.67880   0.34513   0.80450   1.000
    N50     N    0.51180   0.44081   0.87850   1.000
    N51     N    0.50030   0.20417   0.16780   1.000
    N52     N    0.52950   0.26874   0.99220   1.000
    C13     C    0.40410   0.31370   0.13180   1.000
    H55     H    0.40010   0.35260   0.06640   1.000
    H56     H    0.34980   0.28620   0.13340   1.000
    H57     H    0.41460   0.33510   0.21820   1.000
    C14     C    0.47790   0.26300   0.09680   1.000
    N53     N    0.70710   0.35130   0.67590   1.000
    N54     N    0.58630   0.20911   0.99710   1.000
    N55     N    0.56860   0.17162   0.10250   1.000
    N56     N    0.50700   0.46453   0.00680   1.000
    H58     H    0.49070   0.54970   0.62590   1.000
    H59     H    0.55570   0.48190   0.62590   1.000
    H60     H    0.45360   0.46830   0.62590   1.000
    H61     H    0.80970   0.33740   0.06010   1.000
    H62     H    0.72000   0.38060   0.06390   1.000
    H63     H    0.72040   0.29350   0.05620   1.000
    Zn8     Zn   0.54841   0.83713   0.33780   1.000
    N57     N    0.67880   0.84513   0.30450   1.000
    N58     N    0.51180   0.94081   0.37850   1.000
    N59     N    0.50030   0.70417   0.66780   1.000
    N60     N    0.52950   0.76874   0.49220   1.000
    C15     C    0.40410   0.81370   0.63180   1.000
    H64     H    0.40010   0.85260   0.56640   1.000
    H65     H    0.34980   0.78620   0.63340   1.000
    H66     H    0.41460   0.83510   0.71820   1.000
    C16     C    0.47790   0.76300   0.59680   1.000
    N61     N    0.70710   0.85130   0.17590   1.000
    N62     N    0.58630   0.70911   0.49710   1.000
    N63     N    0.56860   0.67162   0.60250   1.000
    N64     N    0.50700   0.96453   0.50680   1.000
    H67     H    0.49070   0.04970   0.12590   1.000
    H68     H    0.55570   0.98190   0.12590   1.000
    H69     H    0.45360   0.96830   0.12590   1.000
    H70     H    0.80970   0.83740   0.56010   1.000
    H71     H    0.72000   0.88060   0.56390   1.000
    H72     H    0.72040   0.79350   0.55620   1.000
    C17     C    0.75000   0.34210   0.88240   1.000
    C18     C    0.75000   0.33810   0.02820   1.000
    C19     C    0.75000   0.84210   0.38240   1.000
    C20     C    0.75000   0.83810   0.52820   1.000
    C21     C    0.25000   0.65790   0.88240   1.000
    C22     C    0.25000   0.66190   0.02820   1.000
    C23     C    0.25000   0.15790   0.38240   1.000
    C24     C    0.25000   0.16190   0.52820   1.000
    C25     C    0.00000   0.50000   0.65790   1.000
    C26     C    0.00000   0.50000   0.80470   1.000
    C27     C    0.00000   0.00000   0.15790   1.000
    C28     C    0.00000   0.00000   0.30470   1.000
    C29     C    0.50000   0.50000   0.65790   1.000
    C30     C    0.50000   0.50000   0.80470   1.000
    C31     C    0.50000   0.00000   0.15790   1.000
    C32     C    0.50000   0.00000   0.30470   1.000
