# CIF file generated by openbabel 2.4.1, see http://openbabel.sf.net
data_I
_chemical_name_common 'WOWGEU_clean'
_cell_length_a 4.978
_cell_length_b 8.189
_cell_length_c 12
_cell_angle_alpha 90
_cell_angle_beta 90
_cell_angle_gamma 91.97
_space_group_name_H-M_alt 'P 1'
_space_group_name_Hall 'P 1'
loop_
    _symmetry_equiv_pos_as_xyz
    x,y,z
loop_
    _atom_site_label
    _atom_site_type_symbol
    _atom_site_fract_x
    _atom_site_fract_y
    _atom_site_fract_z
    _atom_site_occupancy
    Al1     Al   0.50000   0.00000   0.50000   1.000
    Al2     Al   0.50000   0.00000   0.00000   1.000
    Al3     Al   0.75840   0.85510   0.75000   1.000
    Al4     Al   0.24160   0.14490   0.25000   1.000
    P1      P    0.99480   0.76780   0.51474   1.000
    P2      P    0.00520   0.23220   0.01474   1.000
    P3      P    0.00520   0.23220   0.48526   1.000
    P4      P    0.99480   0.76780   0.98526   1.000
    H1      H    0.96430   0.55700   0.38830   1.000
    H2      H    0.72530   0.53900   0.48130   1.000
    H3      H    0.03570   0.44300   0.88830   1.000
    H4      H    0.27470   0.46100   0.98130   1.000
    H5      H    0.03570   0.44300   0.61170   1.000
    H6      H    0.27470   0.46100   0.51870   1.000
    H7      H    0.96430   0.55700   0.11170   1.000
    H8      H    0.72530   0.53900   0.01870   1.000
    C1      C    0.92130   0.56400   0.46930   1.000
    C2      C    0.07870   0.43600   0.96930   1.000
    C3      C    0.07870   0.43600   0.53070   1.000
    C4      C    0.92130   0.56400   0.03070   1.000
    O1      O    0.96420   0.76700   0.64160   1.000
    O2      O    0.79700   0.88080   0.45670   1.000
    O3      O    0.28360   0.80720   0.48090   1.000
    O4      O    0.03580   0.23300   0.14160   1.000
    O5      O    0.20300   0.11920   0.95670   1.000
    O6      O    0.71640   0.19280   0.98090   1.000
    O7      O    0.03580   0.23300   0.35840   1.000
    O8      O    0.20300   0.11920   0.54330   1.000
    O9      O    0.71640   0.19280   0.51910   1.000
    O10     O    0.96420   0.76700   0.85840   1.000
    O11     O    0.79700   0.88080   0.04330   1.000
    O12     O    0.28360   0.80720   0.01910   1.000
    F1      F    0.54700   0.95230   0.64690   1.000
    F2      F    0.45300   0.04770   0.14690   1.000
    F3      F    0.45300   0.04770   0.35310   1.000
    F4      F    0.54700   0.95230   0.85310   1.000
