# CIF file generated by openbabel 2.4.1, see http://openbabel.sf.net
data_I
_chemical_name_common 'image0'
_cell_length_a 35.1081
_cell_length_b 14.6516
_cell_length_c 31.3279
_cell_angle_alpha 90
_cell_angle_beta 101.649
_cell_angle_gamma 90
_space_group_name_H-M_alt 'P 1'
_space_group_name_Hall 'P 1'
loop_
    _symmetry_equiv_pos_as_xyz
    x,y,z
loop_
    _atom_site_label
    _atom_site_type_symbol
    _atom_site_fract_x
    _atom_site_fract_y
    _atom_site_fract_z
    _atom_site_occupancy
    Zn1     Zn   0.33034   0.86240   0.48105   1.000
    I1      I    0.26940   0.76837   0.45798   1.000
    I2      I    0.37603   0.85070   0.55404   1.000
    Zn2     Zn   0.62220   0.10910   0.32220   1.000
    I3      I    0.64634   0.12070   0.24930   1.000
    I4      I    0.59660   0.23690   0.35830   1.000
    Zn3     Zn   0.91990   0.13240   0.65750   1.000
    I5      I    0.97556   0.15340   0.61970   1.000
    I6      I    0.88321   0.24630   0.69303   1.000
    Zn4     Zn   0.83210   0.63830   0.97820   1.000
    I7      I    0.77129   0.73500   0.95695   1.000
    I8      I    0.88119   0.66130   0.04887   1.000
    Zn5     Zn   0.91816   0.87130   0.15807   1.000
    I9      I    0.97850   0.83680   0.12180   1.000
    I10     I    0.88750   0.75660   0.20050   1.000
    Zn6     Zn   0.62590   0.88490   0.81640   1.000
    I11     I    0.64780   0.89930   0.74730   1.000
    I12     I    0.60630   0.75390   0.85440   1.000
    N1      N    0.36170   0.84180   0.43210   1.000
    C1      C    0.34920   0.79380   0.39340   1.000
    H1      H    0.32330   0.77100   0.38760   1.000
    C2      C    0.37080   0.77800   0.36420   1.000
    H2      H    0.36120   0.73970   0.34000   1.000
    C3      C    0.40730   0.81670   0.36890   1.000
    C4      C    0.41830   0.86400   0.40470   1.000
    H3      H    0.44450   0.88480   0.41170   1.000
    C5      C    0.39570   0.88500   0.43070   1.000
    H4      H    0.40320   0.93460   0.45040   1.000
    N2      N    0.57790   0.01450   0.31100   1.000
    C6      C    0.56320   0.97080   0.27620   1.000
    H5      H    0.57360   0.98070   0.25090   1.000
    C7      C    0.53270   0.90950   0.27400   1.000
    H6      H    0.52480   0.87330   0.24860   1.000
    C8      C    0.51410   0.90070   0.30730   1.000
    C9      C    0.53360   0.94040   0.34670   1.000
    H7      H    0.52580   0.92770   0.37340   1.000
    C10     C    0.56460   0.99870   0.34530   1.000
    H8      H    0.57660   0.02860   0.37150   1.000
    N3      N    0.43090   0.48020   0.20060   1.000
    C11     C    0.40440   0.50540   0.22480   1.000
    H9      H    0.38190   0.46870   0.22360   1.000
    C12     C    0.40900   0.58290   0.25100   1.000
    H10     H    0.38950   0.59960   0.26670   1.000
    C13     C    0.44160   0.63420   0.25380   1.000
    C14     C    0.46840   0.61240   0.23010   1.000
    H11     H    0.49080   0.64950   0.23100   1.000
    C15     C    0.46270   0.53390   0.20430   1.000
    H12     H    0.48200   0.51750   0.18840   1.000
    C16     C    0.43090   0.79910   0.33630   1.000
    N4      N    0.45890   0.85900   0.33670   1.000
    C17     C    0.48090   0.84370   0.30600   1.000
    N5      N    0.47570   0.77310   0.27770   1.000
    C18     C    0.44620   0.71600   0.28240   1.000
    N6      N    0.42400   0.72710   0.31000   1.000
    N7      N    0.66550   0.04270   0.36090   1.000
    C19     C    0.68560   0.08670   0.39570   1.000
    H13     H    0.67950   0.14860   0.40060   1.000
    C20     C    0.71470   0.04390   0.42460   1.000
    H14     H    0.72780   0.07520   0.44990   1.000
    C21     C    0.72520   0.95400   0.41690   1.000
    C22     C    0.70450   0.91100   0.38120   1.000
    H15     H    0.71050   0.84960   0.37550   1.000
    C23     C    0.67500   0.95500   0.35340   1.000
    H16     H    0.66110   0.92380   0.32850   1.000
    N8      N    0.87650   0.06350   0.61070   1.000
    C24     C    0.84820   0.10300   0.58240   1.000
    H17     H    0.84370   0.16600   0.58660   1.000
    C25     C    0.82480   0.06140   0.54770   1.000
    H18     H    0.80580   0.09530   0.52810   1.000
    C26     C    0.82930   0.97020   0.54180   1.000
    C27     C    0.85830   0.92480   0.57140   1.000
    H19     H    0.86180   0.86100   0.56850   1.000
    C28     C    0.88190   0.97160   0.60470   1.000
    H20     H    0.90220   0.94020   0.62370   1.000
    N9      N    0.81730   0.50070   0.47180   1.000
    C29     C    0.78520   0.53470   0.44580   1.000
    H21     H    0.76760   0.49430   0.42810   1.000
    C30     C    0.77740   0.62630   0.44440   1.000
    H22     H    0.75380   0.64820   0.42700   1.000
    C31     C    0.80320   0.68670   0.46780   1.000
    C32     C    0.83660   0.65110   0.49260   1.000
    H23     H    0.85460   0.69060   0.51030   1.000
    C33     C    0.84440   0.55960   0.49220   1.000
    H24     H    0.86910   0.53750   0.50650   1.000
    C34     C    0.75760   0.90900   0.44570   1.000
    N10     N    0.77740   0.96080   0.47900   1.000
    C35     C    0.80790   0.91960   0.50510   1.000
    N11     N    0.81750   0.83000   0.49950   1.000
    C36     C    0.79570   0.78670   0.46830   1.000
    N12     N    0.76510   0.82180   0.43980   1.000
    N13     N    0.93190   0.02240   0.70230   1.000
    C37     C    0.91130   0.00800   0.72820   1.000
    H25     H    0.89250   0.05250   0.73130   1.000
    C38     C    0.91350   0.92840   0.75430   1.000
    H26     H    0.89490   0.91660   0.77180   1.000
    C39     C    0.94320   0.86980   0.75340   1.000
    C40     C    0.96830   0.89220   0.72680   1.000
    H27     H    0.99040   0.85500   0.72640   1.000
    C41     C    0.96150   0.96920   0.70050   1.000
    H28     H    0.97830   0.98320   0.68110   1.000
    N14     N    0.86130   0.65440   0.92610   1.000
    C42     C    0.89060   0.61000   0.92810   1.000
    H29     H    0.89790   0.56880   0.95170   1.000
    C43     C    0.91530   0.61800   0.89590   1.000
    H30     H    0.93610   0.57630   0.89570   1.000
    C44     C    0.90710   0.68650   0.86630   1.000
    C45     C    0.87390   0.73490   0.86590   1.000
    H31     H    0.86570   0.78110   0.84470   1.000
    C46     C    0.85230   0.71490   0.89720   1.000
    H32     H    0.82920   0.74890   0.89680   1.000
    N15     N    0.07930   0.48570   0.80860   1.000
    C47     C    0.06500   0.53250   0.77180   1.000
    H33     H    0.07710   0.52760   0.74740   1.000
    C48     C    0.03280   0.58720   0.76960   1.000
    H34     H    0.02230   0.61850   0.74330   1.000
    C49     C    0.01560   0.59710   0.80570   1.000
    C50     C    0.02820   0.54800   0.84140   1.000
    H35     H    0.01580   0.54870   0.86570   1.000
    C51     C    0.06250   0.49300   0.84060   1.000
    H36     H    0.07320   0.46010   0.86630   1.000
    C52     C    0.94930   0.78470   0.78080   1.000
    N16     N    0.92530   0.77720   0.81040   1.000
    C53     C    0.93160   0.70230   0.83470   1.000
    N17     N    0.96090   0.64230   0.83400   1.000
    C54     C    0.98140   0.66020   0.80540   1.000
    N18     N    0.97660   0.72740   0.77590   1.000
    N19     N    0.81790   0.50130   0.97290   1.000
    C55     C    0.78660   0.47030   0.94950   1.000
    H37     H    0.76840   0.51280   0.93400   1.000
    C56     C    0.77710   0.37600   0.94530   1.000
    H38     H    0.75400   0.35500   0.92660   1.000
    C57     C    0.80330   0.31640   0.96970   1.000
    C58     C    0.83700   0.35050   0.99440   1.000
    H39     H    0.85610   0.31050   0.01010   1.000
    C59     C    0.84280   0.44370   0.99610   1.000
    H40     H    0.86550   0.46730   0.01460   1.000
    N20     N    0.87840   0.93870   0.10970   1.000
    C60     C    0.88370   0.02340   0.10230   1.000
    H41     H    0.90400   0.05410   0.12160   1.000
    C61     C    0.86220   0.07350   0.06840   1.000
    H42     H    0.86830   0.13560   0.06410   1.000
    C62     C    0.83260   0.03160   0.04180   1.000
    C63     C    0.82590   0.94010   0.05030   1.000
    H43     H    0.80490   0.90880   0.03230   1.000
    C64     C    0.84890   0.89510   0.08380   1.000
    H44     H    0.84410   0.83260   0.08880   1.000
    N21     N    0.66550   0.96280   0.86190   1.000
    C65     C    0.68800   0.91870   0.89470   1.000
    H45     H    0.68310   0.85570   0.89830   1.000
    C66     C    0.71730   0.95860   0.92320   1.000
    H46     H    0.73270   0.92300   0.94550   1.000
    C67     C    0.72490   0.04890   0.92020   1.000
    C68     C    0.70060   0.09870   0.88740   1.000
    H47     H    0.70390   0.16240   0.88390   1.000
    C69     C    0.67100   0.04990   0.85990   1.000
    H48     H    0.65370   0.08330   0.83820   1.000
    C70     C    0.79390   0.21650   0.97180   1.000
    N22     N    0.81850   0.16900   0.00240   1.000
    C71     C    0.80730   0.08400   0.00580   1.000
    N23     N    0.77770   0.04200   0.98190   1.000
    C72     C    0.75790   0.09500   0.95090   1.000
    N24     N    0.76390   0.18310   0.94470   1.000
    Zn7     Zn   0.32680   0.86010   0.46960   1.000
    I13     I    0.26540   0.77990   0.45170   1.000
    I14     I    0.36730   0.82650   0.54410   1.000
    Zn8     Zn   0.62360   0.10800   0.30890   1.000
    I15     I    0.64750   0.09840   0.24310   1.000
    I16     I    0.60990   0.24740   0.34620   1.000
    Zn9     Zn   0.90810   0.12260   0.65700   1.000
    I17     I    0.96810   0.17510   0.62830   1.000
    I18     I    0.86990   0.23340   0.69510   1.000
    Zn10    Zn   0.82250   0.64750   0.97020   1.000
    I19     I    0.75910   0.72310   0.94140   1.000
    I20     I    0.87040   0.67910   0.03830   1.000
    I21     I    0.97380   0.85510   0.12470   1.000
    I22     I    0.87890   0.76020   0.19310   1.000
    Zn11    Zn   0.62570   0.91020   0.81330   1.000
    I23     I    0.65440   0.90380   0.74390   1.000
    I24     I    0.60510   0.76220   0.84620   1.000
    Zn12    Zn   0.83034   0.36240   0.48105   1.000
    I25     I    0.76940   0.26837   0.45798   1.000
    I26     I    0.87603   0.35070   0.55404   1.000
    Zn13    Zn   0.12220   0.60910   0.32220   1.000
    I27     I    0.14634   0.62070   0.24930   1.000
    I28     I    0.09660   0.73690   0.35830   1.000
    Zn14    Zn   0.41990   0.63240   0.65750   1.000
    I29     I    0.47556   0.65340   0.61970   1.000
    I30     I    0.38321   0.74630   0.69303   1.000
    Zn15    Zn   0.33210   0.13830   0.97820   1.000
    I31     I    0.27129   0.23500   0.95695   1.000
    I32     I    0.38119   0.16130   0.04887   1.000
    Zn16    Zn   0.41816   0.37130   0.15807   1.000
    I33     I    0.47850   0.33680   0.12180   1.000
    I34     I    0.38750   0.25660   0.20050   1.000
    Zn17    Zn   0.12590   0.38490   0.81640   1.000
    I35     I    0.14780   0.39930   0.74730   1.000
    I36     I    0.10630   0.25390   0.85440   1.000
    N25     N    0.86170   0.34180   0.43210   1.000
    C73     C    0.84920   0.29380   0.39340   1.000
    H49     H    0.82330   0.27100   0.38760   1.000
    C74     C    0.87080   0.27800   0.36420   1.000
    H50     H    0.86120   0.23970   0.34000   1.000
    C75     C    0.90730   0.31670   0.36890   1.000
    C76     C    0.91830   0.36400   0.40470   1.000
    H51     H    0.94450   0.38480   0.41170   1.000
    C77     C    0.89570   0.38500   0.43070   1.000
    H52     H    0.90320   0.43460   0.45040   1.000
    N26     N    0.07790   0.51450   0.31100   1.000
    C78     C    0.06320   0.47080   0.27620   1.000
    H53     H    0.07360   0.48070   0.25090   1.000
    C79     C    0.03270   0.40950   0.27400   1.000
    H54     H    0.02480   0.37330   0.24860   1.000
    C80     C    0.01410   0.40070   0.30730   1.000
    C81     C    0.03360   0.44040   0.34670   1.000
    H55     H    0.02580   0.42770   0.37340   1.000
    C82     C    0.06460   0.49870   0.34530   1.000
    H56     H    0.07660   0.52860   0.37150   1.000
    N27     N    0.93090   0.98020   0.20060   1.000
    C83     C    0.90440   0.00540   0.22480   1.000
    H57     H    0.88190   0.96870   0.22360   1.000
    C84     C    0.90900   0.08290   0.25100   1.000
    H58     H    0.88950   0.09960   0.26670   1.000
    C85     C    0.94160   0.13420   0.25380   1.000
    C86     C    0.96840   0.11240   0.23010   1.000
    H59     H    0.99080   0.14950   0.23100   1.000
    C87     C    0.96270   0.03390   0.20430   1.000
    H60     H    0.98200   0.01750   0.18840   1.000
    C88     C    0.93090   0.29910   0.33630   1.000
    N28     N    0.95890   0.35900   0.33670   1.000
    C89     C    0.98090   0.34370   0.30600   1.000
    N29     N    0.97570   0.27310   0.27770   1.000
    C90     C    0.94620   0.21600   0.28240   1.000
    N30     N    0.92400   0.22710   0.31000   1.000
    N31     N    0.16550   0.54270   0.36090   1.000
    C91     C    0.18560   0.58670   0.39570   1.000
    H61     H    0.17950   0.64860   0.40060   1.000
    C92     C    0.21470   0.54390   0.42460   1.000
    H62     H    0.22780   0.57520   0.44990   1.000
    C93     C    0.22520   0.45400   0.41690   1.000
    C94     C    0.20450   0.41100   0.38120   1.000
    H63     H    0.21050   0.34960   0.37550   1.000
    C95     C    0.17500   0.45500   0.35340   1.000
    H64     H    0.16110   0.42380   0.32850   1.000
    N32     N    0.37650   0.56350   0.61070   1.000
    C96     C    0.34820   0.60300   0.58240   1.000
    H65     H    0.34370   0.66600   0.58660   1.000
    C97     C    0.32480   0.56140   0.54770   1.000
    H66     H    0.30580   0.59530   0.52810   1.000
    C98     C    0.32930   0.47020   0.54180   1.000
    C99     C    0.35830   0.42480   0.57140   1.000
    H67     H    0.36180   0.36100   0.56850   1.000
    C100    C    0.38190   0.47160   0.60470   1.000
    H68     H    0.40220   0.44020   0.62370   1.000
    N33     N    0.31730   0.00070   0.47180   1.000
    C101    C    0.28520   0.03470   0.44580   1.000
    H69     H    0.26760   0.99430   0.42810   1.000
    C102    C    0.27740   0.12630   0.44440   1.000
    H70     H    0.25380   0.14820   0.42700   1.000
    C103    C    0.30320   0.18670   0.46780   1.000
    C104    C    0.33660   0.15110   0.49260   1.000
    H71     H    0.35460   0.19060   0.51030   1.000
    C105    C    0.34440   0.05960   0.49220   1.000
    H72     H    0.36910   0.03750   0.50650   1.000
    C106    C    0.25760   0.40900   0.44570   1.000
    N34     N    0.27740   0.46080   0.47900   1.000
    C107    C    0.30790   0.41960   0.50510   1.000
    N35     N    0.31750   0.33000   0.49950   1.000
    C108    C    0.29570   0.28670   0.46830   1.000
    N36     N    0.26510   0.32180   0.43980   1.000
    N37     N    0.43190   0.52240   0.70230   1.000
    C109    C    0.41130   0.50800   0.72820   1.000
    H73     H    0.39250   0.55250   0.73130   1.000
    C110    C    0.41350   0.42840   0.75430   1.000
    H74     H    0.39490   0.41660   0.77180   1.000
    C111    C    0.44320   0.36980   0.75340   1.000
    C112    C    0.46830   0.39220   0.72680   1.000
    H75     H    0.49040   0.35500   0.72640   1.000
    C113    C    0.46150   0.46920   0.70050   1.000
    H76     H    0.47830   0.48320   0.68110   1.000
    N38     N    0.36130   0.15440   0.92610   1.000
    C114    C    0.39060   0.11000   0.92810   1.000
    H77     H    0.39790   0.06880   0.95170   1.000
    C115    C    0.41530   0.11800   0.89590   1.000
    H78     H    0.43610   0.07630   0.89570   1.000
    C116    C    0.40710   0.18650   0.86630   1.000
    C117    C    0.37390   0.23490   0.86590   1.000
    H79     H    0.36570   0.28110   0.84470   1.000
    C118    C    0.35230   0.21490   0.89720   1.000
    H80     H    0.32920   0.24890   0.89680   1.000
    N39     N    0.57930   0.98570   0.80860   1.000
    C119    C    0.56500   0.03250   0.77180   1.000
    H81     H    0.57710   0.02760   0.74740   1.000
    C120    C    0.53280   0.08720   0.76960   1.000
    H82     H    0.52230   0.11850   0.74330   1.000
    C121    C    0.51560   0.09710   0.80570   1.000
    C122    C    0.52820   0.04800   0.84140   1.000
    H83     H    0.51580   0.04870   0.86570   1.000
    C123    C    0.56250   0.99300   0.84060   1.000
    H84     H    0.57320   0.96010   0.86630   1.000
    C124    C    0.44930   0.28470   0.78080   1.000
    N40     N    0.42530   0.27720   0.81040   1.000
    C125    C    0.43160   0.20230   0.83470   1.000
    N41     N    0.46090   0.14230   0.83400   1.000
    C126    C    0.48140   0.16020   0.80540   1.000
    N42     N    0.47660   0.22740   0.77590   1.000
    N43     N    0.31790   0.00130   0.97290   1.000
    C127    C    0.28660   0.97030   0.94950   1.000
    H85     H    0.26840   0.01280   0.93400   1.000
    C128    C    0.27710   0.87600   0.94530   1.000
    H86     H    0.25400   0.85500   0.92660   1.000
    C129    C    0.30330   0.81640   0.96970   1.000
    C130    C    0.33700   0.85050   0.99440   1.000
    H87     H    0.35610   0.81050   0.01010   1.000
    C131    C    0.34280   0.94370   0.99610   1.000
    H88     H    0.36550   0.96730   0.01460   1.000
    N44     N    0.37840   0.43870   0.10970   1.000
    C132    C    0.38370   0.52340   0.10230   1.000
    H89     H    0.40400   0.55410   0.12160   1.000
    C133    C    0.36220   0.57350   0.06840   1.000
    H90     H    0.36830   0.63560   0.06410   1.000
    C134    C    0.33260   0.53160   0.04180   1.000
    C135    C    0.32590   0.44010   0.05030   1.000
    H91     H    0.30490   0.40880   0.03230   1.000
    C136    C    0.34890   0.39510   0.08380   1.000
    H92     H    0.34410   0.33260   0.08880   1.000
    N45     N    0.16550   0.46280   0.86190   1.000
    C137    C    0.18800   0.41870   0.89470   1.000
    H93     H    0.18310   0.35570   0.89830   1.000
    C138    C    0.21730   0.45860   0.92320   1.000
    H94     H    0.23270   0.42300   0.94550   1.000
    C139    C    0.22490   0.54890   0.92020   1.000
    C140    C    0.20060   0.59870   0.88740   1.000
    H95     H    0.20390   0.66240   0.88390   1.000
    C141    C    0.17100   0.54990   0.85990   1.000
    H96     H    0.15370   0.58330   0.83820   1.000
    C142    C    0.29390   0.71650   0.97180   1.000
    N46     N    0.31850   0.66900   0.00240   1.000
    C143    C    0.30730   0.58400   0.00580   1.000
    N47     N    0.27770   0.54200   0.98190   1.000
    C144    C    0.25790   0.59500   0.95090   1.000
    N48     N    0.26390   0.68310   0.94470   1.000
    Zn18    Zn   0.82680   0.36010   0.46960   1.000
    I37     I    0.76540   0.27990   0.45170   1.000
    I38     I    0.86730   0.32650   0.54410   1.000
    Zn19    Zn   0.12360   0.60800   0.30890   1.000
    I39     I    0.14750   0.59840   0.24310   1.000
    I40     I    0.10990   0.74740   0.34620   1.000
    Zn20    Zn   0.40810   0.62260   0.65700   1.000
    I41     I    0.46810   0.67510   0.62830   1.000
    I42     I    0.36990   0.73340   0.69510   1.000
    Zn21    Zn   0.32250   0.14750   0.97020   1.000
    I43     I    0.25910   0.22310   0.94140   1.000
    I44     I    0.37040   0.17910   0.03830   1.000
    I45     I    0.47380   0.35510   0.12470   1.000
    I46     I    0.37890   0.26020   0.19310   1.000
    Zn22    Zn   0.12570   0.41020   0.81330   1.000
    I47     I    0.15440   0.40380   0.74390   1.000
    I48     I    0.10510   0.26220   0.84620   1.000
    Zn23    Zn   0.66966   0.86240   0.51895   1.000
    I49     I    0.73060   0.76837   0.54202   1.000
    I50     I    0.62397   0.85070   0.44596   1.000
    Zn24    Zn   0.37780   0.10910   0.67780   1.000
    I51     I    0.35366   0.12070   0.75070   1.000
    I52     I    0.40340   0.23690   0.64170   1.000
    Zn25    Zn   0.08010   0.13240   0.34250   1.000
    I53     I    0.02444   0.15340   0.38030   1.000
    I54     I    0.11679   0.24630   0.30697   1.000
    Zn26    Zn   0.16790   0.63830   0.02180   1.000
    I55     I    0.22871   0.73500   0.04305   1.000
    I56     I    0.11881   0.66130   0.95113   1.000
    Zn27    Zn   0.08184   0.87130   0.84193   1.000
    I57     I    0.02150   0.83680   0.87820   1.000
    I58     I    0.11250   0.75660   0.79950   1.000
    Zn28    Zn   0.37410   0.88490   0.18360   1.000
    I59     I    0.35220   0.89930   0.25270   1.000
    I60     I    0.39370   0.75390   0.14560   1.000
    N49     N    0.63830   0.84180   0.56790   1.000
    C145    C    0.65080   0.79380   0.60660   1.000
    H97     H    0.67670   0.77100   0.61240   1.000
    C146    C    0.62920   0.77800   0.63580   1.000
    H98     H    0.63880   0.73970   0.66000   1.000
    C147    C    0.59270   0.81670   0.63110   1.000
    C148    C    0.58170   0.86400   0.59530   1.000
    H99     H    0.55550   0.88480   0.58830   1.000
    C149    C    0.60430   0.88500   0.56930   1.000
    H100    H    0.59680   0.93460   0.54960   1.000
    N50     N    0.42210   0.01450   0.68900   1.000
    C150    C    0.43680   0.97080   0.72380   1.000
    H101    H    0.42640   0.98070   0.74910   1.000
    C151    C    0.46730   0.90950   0.72600   1.000
    H102    H    0.47520   0.87330   0.75140   1.000
    C152    C    0.48590   0.90070   0.69270   1.000
    C153    C    0.46640   0.94040   0.65330   1.000
    H103    H    0.47420   0.92770   0.62660   1.000
    C154    C    0.43540   0.99870   0.65470   1.000
    H104    H    0.42340   0.02860   0.62850   1.000
    N51     N    0.56910   0.48020   0.79940   1.000
    C155    C    0.59560   0.50540   0.77520   1.000
    H105    H    0.61810   0.46870   0.77640   1.000
    C156    C    0.59100   0.58290   0.74900   1.000
    H106    H    0.61050   0.59960   0.73330   1.000
    C157    C    0.55840   0.63420   0.74620   1.000
    C158    C    0.53160   0.61240   0.76990   1.000
    H107    H    0.50920   0.64950   0.76900   1.000
    C159    C    0.53730   0.53390   0.79570   1.000
    H108    H    0.51800   0.51750   0.81160   1.000
    C160    C    0.56910   0.79910   0.66370   1.000
    N52     N    0.54110   0.85900   0.66330   1.000
    C161    C    0.51910   0.84370   0.69400   1.000
    N53     N    0.52430   0.77310   0.72230   1.000
    C162    C    0.55380   0.71600   0.71760   1.000
    N54     N    0.57600   0.72710   0.69000   1.000
    N55     N    0.33450   0.04270   0.63910   1.000
    C163    C    0.31440   0.08670   0.60430   1.000
    H109    H    0.32050   0.14860   0.59940   1.000
    C164    C    0.28530   0.04390   0.57540   1.000
    H110    H    0.27220   0.07520   0.55010   1.000
    C165    C    0.27480   0.95400   0.58310   1.000
    C166    C    0.29550   0.91100   0.61880   1.000
    H111    H    0.28950   0.84960   0.62450   1.000
    C167    C    0.32500   0.95500   0.64660   1.000
    H112    H    0.33890   0.92380   0.67150   1.000
    N56     N    0.12350   0.06350   0.38930   1.000
    C168    C    0.15180   0.10300   0.41760   1.000
    H113    H    0.15630   0.16600   0.41340   1.000
    C169    C    0.17520   0.06140   0.45230   1.000
    H114    H    0.19420   0.09530   0.47190   1.000
    C170    C    0.17070   0.97020   0.45820   1.000
    C171    C    0.14170   0.92480   0.42860   1.000
    H115    H    0.13820   0.86100   0.43150   1.000
    C172    C    0.11810   0.97160   0.39530   1.000
    H116    H    0.09780   0.94020   0.37630   1.000
    N57     N    0.18270   0.50070   0.52820   1.000
    C173    C    0.21480   0.53470   0.55420   1.000
    H117    H    0.23240   0.49430   0.57190   1.000
    C174    C    0.22260   0.62630   0.55560   1.000
    H118    H    0.24620   0.64820   0.57300   1.000
    C175    C    0.19680   0.68670   0.53220   1.000
    C176    C    0.16340   0.65110   0.50740   1.000
    H119    H    0.14540   0.69060   0.48970   1.000
    C177    C    0.15560   0.55960   0.50780   1.000
    H120    H    0.13090   0.53750   0.49350   1.000
    C178    C    0.24240   0.90900   0.55430   1.000
    N58     N    0.22260   0.96080   0.52100   1.000
    C179    C    0.19210   0.91960   0.49490   1.000
    N59     N    0.18250   0.83000   0.50050   1.000
    C180    C    0.20430   0.78670   0.53170   1.000
    N60     N    0.23490   0.82180   0.56020   1.000
    N61     N    0.06810   0.02240   0.29770   1.000
    C181    C    0.08870   0.00800   0.27180   1.000
    H121    H    0.10750   0.05250   0.26870   1.000
    C182    C    0.08650   0.92840   0.24570   1.000
    H122    H    0.10510   0.91660   0.22820   1.000
    C183    C    0.05680   0.86980   0.24660   1.000
    C184    C    0.03170   0.89220   0.27320   1.000
    H123    H    0.00960   0.85500   0.27360   1.000
    C185    C    0.03850   0.96920   0.29950   1.000
    H124    H    0.02170   0.98320   0.31890   1.000
    N62     N    0.13870   0.65440   0.07390   1.000
    C186    C    0.10940   0.61000   0.07190   1.000
    H125    H    0.10210   0.56880   0.04830   1.000
    C187    C    0.08470   0.61800   0.10410   1.000
    H126    H    0.06390   0.57630   0.10430   1.000
    C188    C    0.09290   0.68650   0.13370   1.000
    C189    C    0.12610   0.73490   0.13410   1.000
    H127    H    0.13430   0.78110   0.15530   1.000
    C190    C    0.14770   0.71490   0.10280   1.000
    H128    H    0.17080   0.74890   0.10320   1.000
    N63     N    0.92070   0.48570   0.19140   1.000
    C191    C    0.93500   0.53250   0.22820   1.000
    H129    H    0.92290   0.52760   0.25260   1.000
    C192    C    0.96720   0.58720   0.23040   1.000
    H130    H    0.97770   0.61850   0.25670   1.000
    C193    C    0.98440   0.59710   0.19430   1.000
    C194    C    0.97180   0.54800   0.15860   1.000
    H131    H    0.98420   0.54870   0.13430   1.000
    C195    C    0.93750   0.49300   0.15940   1.000
    H132    H    0.92680   0.46010   0.13370   1.000
    C196    C    0.05070   0.78470   0.21920   1.000
    N64     N    0.07470   0.77720   0.18960   1.000
    C197    C    0.06840   0.70230   0.16530   1.000
    N65     N    0.03910   0.64230   0.16600   1.000
    C198    C    0.01860   0.66020   0.19460   1.000
    N66     N    0.02340   0.72740   0.22410   1.000
    N67     N    0.18210   0.50130   0.02710   1.000
    C199    C    0.21340   0.47030   0.05050   1.000
    H133    H    0.23160   0.51280   0.06600   1.000
    C200    C    0.22290   0.37600   0.05470   1.000
    H134    H    0.24600   0.35500   0.07340   1.000
    C201    C    0.19670   0.31640   0.03030   1.000
    C202    C    0.16300   0.35050   0.00560   1.000
    H135    H    0.14390   0.31050   0.98990   1.000
    C203    C    0.15720   0.44370   0.00390   1.000
    H136    H    0.13450   0.46730   0.98540   1.000
    N68     N    0.12160   0.93870   0.89030   1.000
    C204    C    0.11630   0.02340   0.89770   1.000
    H137    H    0.09600   0.05410   0.87840   1.000
    C205    C    0.13780   0.07350   0.93160   1.000
    H138    H    0.13170   0.13560   0.93590   1.000
    C206    C    0.16740   0.03160   0.95820   1.000
    C207    C    0.17410   0.94010   0.94970   1.000
    H139    H    0.19510   0.90880   0.96770   1.000
    C208    C    0.15110   0.89510   0.91620   1.000
    H140    H    0.15590   0.83260   0.91120   1.000
    N69     N    0.33450   0.96280   0.13810   1.000
    C209    C    0.31200   0.91870   0.10530   1.000
    H141    H    0.31690   0.85570   0.10170   1.000
    C210    C    0.28270   0.95860   0.07680   1.000
    H142    H    0.26730   0.92300   0.05450   1.000
    C211    C    0.27510   0.04890   0.07980   1.000
    C212    C    0.29940   0.09870   0.11260   1.000
    H143    H    0.29610   0.16240   0.11610   1.000
    C213    C    0.32900   0.04990   0.14010   1.000
    H144    H    0.34630   0.08330   0.16180   1.000
    C214    C    0.20610   0.21650   0.02820   1.000
    N70     N    0.18150   0.16900   0.99760   1.000
    C215    C    0.19270   0.08400   0.99420   1.000
    N71     N    0.22230   0.04200   0.01810   1.000
    C216    C    0.24210   0.09500   0.04910   1.000
    N72     N    0.23610   0.18310   0.05530   1.000
    Zn29    Zn   0.67320   0.86010   0.53040   1.000
    I61     I    0.73460   0.77990   0.54830   1.000
    I62     I    0.63270   0.82650   0.45590   1.000
    Zn30    Zn   0.37640   0.10800   0.69110   1.000
    I63     I    0.35250   0.09840   0.75690   1.000
    I64     I    0.39010   0.24740   0.65380   1.000
    Zn31    Zn   0.09190   0.12260   0.34300   1.000
    I65     I    0.03190   0.17510   0.37170   1.000
    I66     I    0.13010   0.23340   0.30490   1.000
    Zn32    Zn   0.17750   0.64750   0.02980   1.000
    I67     I    0.24090   0.72310   0.05860   1.000
    I68     I    0.12960   0.67910   0.96170   1.000
    I69     I    0.02620   0.85510   0.87530   1.000
    I70     I    0.12110   0.76020   0.80690   1.000
    Zn33    Zn   0.37430   0.91020   0.18670   1.000
    I71     I    0.34560   0.90380   0.25610   1.000
    I72     I    0.39490   0.76220   0.15380   1.000
    Zn34    Zn   0.16966   0.36240   0.51895   1.000
    I73     I    0.23060   0.26837   0.54202   1.000
    I74     I    0.12397   0.35070   0.44596   1.000
    Zn35    Zn   0.87780   0.60910   0.67780   1.000
    I75     I    0.85366   0.62070   0.75070   1.000
    I76     I    0.90340   0.73690   0.64170   1.000
    Zn36    Zn   0.58010   0.63240   0.34250   1.000
    I77     I    0.52444   0.65340   0.38030   1.000
    I78     I    0.61679   0.74630   0.30697   1.000
    Zn37    Zn   0.66790   0.13830   0.02180   1.000
    I79     I    0.72871   0.23500   0.04305   1.000
    I80     I    0.61881   0.16130   0.95113   1.000
    Zn38    Zn   0.58184   0.37130   0.84193   1.000
    I81     I    0.52150   0.33680   0.87820   1.000
    I82     I    0.61250   0.25660   0.79950   1.000
    Zn39    Zn   0.87410   0.38490   0.18360   1.000
    I83     I    0.85220   0.39930   0.25270   1.000
    I84     I    0.89370   0.25390   0.14560   1.000
    N73     N    0.13830   0.34180   0.56790   1.000
    C217    C    0.15080   0.29380   0.60660   1.000
    H145    H    0.17670   0.27100   0.61240   1.000
    C218    C    0.12920   0.27800   0.63580   1.000
    H146    H    0.13880   0.23970   0.66000   1.000
    C219    C    0.09270   0.31670   0.63110   1.000
    C220    C    0.08170   0.36400   0.59530   1.000
    H147    H    0.05550   0.38480   0.58830   1.000
    C221    C    0.10430   0.38500   0.56930   1.000
    H148    H    0.09680   0.43460   0.54960   1.000
    N74     N    0.92210   0.51450   0.68900   1.000
    C222    C    0.93680   0.47080   0.72380   1.000
    H149    H    0.92640   0.48070   0.74910   1.000
    C223    C    0.96730   0.40950   0.72600   1.000
    H150    H    0.97520   0.37330   0.75140   1.000
    C224    C    0.98590   0.40070   0.69270   1.000
    C225    C    0.96640   0.44040   0.65330   1.000
    H151    H    0.97420   0.42770   0.62660   1.000
    C226    C    0.93540   0.49870   0.65470   1.000
    H152    H    0.92340   0.52860   0.62850   1.000
    N75     N    0.06910   0.98020   0.79940   1.000
    C227    C    0.09560   0.00540   0.77520   1.000
    H153    H    0.11810   0.96870   0.77640   1.000
    C228    C    0.09100   0.08290   0.74900   1.000
    H154    H    0.11050   0.09960   0.73330   1.000
    C229    C    0.05840   0.13420   0.74620   1.000
    C230    C    0.03160   0.11240   0.76990   1.000
    H155    H    0.00920   0.14950   0.76900   1.000
    C231    C    0.03730   0.03390   0.79570   1.000
    H156    H    0.01800   0.01750   0.81160   1.000
    C232    C    0.06910   0.29910   0.66370   1.000
    N76     N    0.04110   0.35900   0.66330   1.000
    C233    C    0.01910   0.34370   0.69400   1.000
    N77     N    0.02430   0.27310   0.72230   1.000
    C234    C    0.05380   0.21600   0.71760   1.000
    N78     N    0.07600   0.22710   0.69000   1.000
    N79     N    0.83450   0.54270   0.63910   1.000
    C235    C    0.81440   0.58670   0.60430   1.000
    H157    H    0.82050   0.64860   0.59940   1.000
    C236    C    0.78530   0.54390   0.57540   1.000
    H158    H    0.77220   0.57520   0.55010   1.000
    C237    C    0.77480   0.45400   0.58310   1.000
    C238    C    0.79550   0.41100   0.61880   1.000
    H159    H    0.78950   0.34960   0.62450   1.000
    C239    C    0.82500   0.45500   0.64660   1.000
    H160    H    0.83890   0.42380   0.67150   1.000
    N80     N    0.62350   0.56350   0.38930   1.000
    C240    C    0.65180   0.60300   0.41760   1.000
    H161    H    0.65630   0.66600   0.41340   1.000
    C241    C    0.67520   0.56140   0.45230   1.000
    H162    H    0.69420   0.59530   0.47190   1.000
    C242    C    0.67070   0.47020   0.45820   1.000
    C243    C    0.64170   0.42480   0.42860   1.000
    H163    H    0.63820   0.36100   0.43150   1.000
    C244    C    0.61810   0.47160   0.39530   1.000
    H164    H    0.59780   0.44020   0.37630   1.000
    N81     N    0.68270   0.00070   0.52820   1.000
    C245    C    0.71480   0.03470   0.55420   1.000
    H165    H    0.73240   0.99430   0.57190   1.000
    C246    C    0.72260   0.12630   0.55560   1.000
    H166    H    0.74620   0.14820   0.57300   1.000
    C247    C    0.69680   0.18670   0.53220   1.000
    C248    C    0.66340   0.15110   0.50740   1.000
    H167    H    0.64540   0.19060   0.48970   1.000
    C249    C    0.65560   0.05960   0.50780   1.000
    H168    H    0.63090   0.03750   0.49350   1.000
    C250    C    0.74240   0.40900   0.55430   1.000
    N82     N    0.72260   0.46080   0.52100   1.000
    C251    C    0.69210   0.41960   0.49490   1.000
    N83     N    0.68250   0.33000   0.50050   1.000
    C252    C    0.70430   0.28670   0.53170   1.000
    N84     N    0.73490   0.32180   0.56020   1.000
    N85     N    0.56810   0.52240   0.29770   1.000
    C253    C    0.58870   0.50800   0.27180   1.000
    H169    H    0.60750   0.55250   0.26870   1.000
    C254    C    0.58650   0.42840   0.24570   1.000
    H170    H    0.60510   0.41660   0.22820   1.000
    C255    C    0.55680   0.36980   0.24660   1.000
    C256    C    0.53170   0.39220   0.27320   1.000
    H171    H    0.50960   0.35500   0.27360   1.000
    C257    C    0.53850   0.46920   0.29950   1.000
    H172    H    0.52170   0.48320   0.31890   1.000
    N86     N    0.63870   0.15440   0.07390   1.000
    C258    C    0.60940   0.11000   0.07190   1.000
    H173    H    0.60210   0.06880   0.04830   1.000
    C259    C    0.58470   0.11800   0.10410   1.000
    H174    H    0.56390   0.07630   0.10430   1.000
    C260    C    0.59290   0.18650   0.13370   1.000
    C261    C    0.62610   0.23490   0.13410   1.000
    H175    H    0.63430   0.28110   0.15530   1.000
    C262    C    0.64770   0.21490   0.10280   1.000
    H176    H    0.67080   0.24890   0.10320   1.000
    N87     N    0.42070   0.98570   0.19140   1.000
    C263    C    0.43500   0.03250   0.22820   1.000
    H177    H    0.42290   0.02760   0.25260   1.000
    C264    C    0.46720   0.08720   0.23040   1.000
    H178    H    0.47770   0.11850   0.25670   1.000
    C265    C    0.48440   0.09710   0.19430   1.000
    C266    C    0.47180   0.04800   0.15860   1.000
    H179    H    0.48420   0.04870   0.13430   1.000
    C267    C    0.43750   0.99300   0.15940   1.000
    H180    H    0.42680   0.96010   0.13370   1.000
    C268    C    0.55070   0.28470   0.21920   1.000
    N88     N    0.57470   0.27720   0.18960   1.000
    C269    C    0.56840   0.20230   0.16530   1.000
    N89     N    0.53910   0.14230   0.16600   1.000
    C270    C    0.51860   0.16020   0.19460   1.000
    N90     N    0.52340   0.22740   0.22410   1.000
    N91     N    0.68210   0.00130   0.02710   1.000
    C271    C    0.71340   0.97030   0.05050   1.000
    H181    H    0.73160   0.01280   0.06600   1.000
    C272    C    0.72290   0.87600   0.05470   1.000
    H182    H    0.74600   0.85500   0.07340   1.000
    C273    C    0.69670   0.81640   0.03030   1.000
    C274    C    0.66300   0.85050   0.00560   1.000
    H183    H    0.64390   0.81050   0.98990   1.000
    C275    C    0.65720   0.94370   0.00390   1.000
    H184    H    0.63450   0.96730   0.98540   1.000
    N92     N    0.62160   0.43870   0.89030   1.000
    C276    C    0.61630   0.52340   0.89770   1.000
    H185    H    0.59600   0.55410   0.87840   1.000
    C277    C    0.63780   0.57350   0.93160   1.000
    H186    H    0.63170   0.63560   0.93590   1.000
    C278    C    0.66740   0.53160   0.95820   1.000
    C279    C    0.67410   0.44010   0.94970   1.000
    H187    H    0.69510   0.40880   0.96770   1.000
    C280    C    0.65110   0.39510   0.91620   1.000
    H188    H    0.65590   0.33260   0.91120   1.000
    N93     N    0.83450   0.46280   0.13810   1.000
    C281    C    0.81200   0.41870   0.10530   1.000
    H189    H    0.81690   0.35570   0.10170   1.000
    C282    C    0.78270   0.45860   0.07680   1.000
    H190    H    0.76730   0.42300   0.05450   1.000
    C283    C    0.77510   0.54890   0.07980   1.000
    C284    C    0.79940   0.59870   0.11260   1.000
    H191    H    0.79610   0.66240   0.11610   1.000
    C285    C    0.82900   0.54990   0.14010   1.000
    H192    H    0.84630   0.58330   0.16180   1.000
    C286    C    0.70610   0.71650   0.02820   1.000
    N94     N    0.68150   0.66900   0.99760   1.000
    C287    C    0.69270   0.58400   0.99420   1.000
    N95     N    0.72230   0.54200   0.01810   1.000
    C288    C    0.74210   0.59500   0.04910   1.000
    N96     N    0.73610   0.68310   0.05530   1.000
    Zn40    Zn   0.17320   0.36010   0.53040   1.000
    I85     I    0.23460   0.27990   0.54830   1.000
    I86     I    0.13270   0.32650   0.45590   1.000
    Zn41    Zn   0.87640   0.60800   0.69110   1.000
    I87     I    0.85250   0.59840   0.75690   1.000
    I88     I    0.89010   0.74740   0.65380   1.000
    Zn42    Zn   0.59190   0.62260   0.34300   1.000
    I89     I    0.53190   0.67510   0.37170   1.000
    I90     I    0.63010   0.73340   0.30490   1.000
    Zn43    Zn   0.67750   0.14750   0.02980   1.000
    I91     I    0.74090   0.22310   0.05860   1.000
    I92     I    0.62960   0.17910   0.96170   1.000
    I93     I    0.52620   0.35510   0.87530   1.000
    I94     I    0.62110   0.26020   0.80690   1.000
    Zn44    Zn   0.87430   0.41020   0.18670   1.000
    I95     I    0.84560   0.40380   0.25610   1.000
    I96     I    0.89490   0.26220   0.15380   1.000
    C289    C    0.98900   0.18800   0.86500   1.000
    H193    H    0.01030   0.19950   0.84990   1.000
    H194    H    0.97020   0.24010   0.85900   1.000
    C290    C    0.00400   0.17900   0.91400   1.000
    H195    H    0.98880   0.21890   0.93030   1.000
    H196    H    0.03160   0.19960   0.92160   1.000
    C291    C    0.00100   0.08000   0.92900   1.000
    H197    H    0.01460   0.07410   0.96010   1.000
    H198    H    0.01540   0.04000   0.91180   1.000
    C292    C    0.95900   0.04500   0.92400   1.000
    H199    H    0.95860   0.97850   0.92830   1.000
    H200    H    0.94620   0.07510   0.94560   1.000
    C293    C    0.93800   0.07000   0.87700   1.000
    H201    H    0.92010   0.12170   0.87870   1.000
    H202    H    0.92280   0.01750   0.86400   1.000
    C294    C    0.96800   0.09800   0.84900   1.000
    H203    H    0.98750   0.04910   0.85050   1.000
    H204    H    0.95410   0.10500   0.81860   1.000
    C295    C    0.98100   0.66500   0.01500   1.000
    H205    H    0.95210   0.66950   0.00590   1.000
    H206    H    0.98960   0.70850   0.03900   1.000
    C296    C    0.99900   0.69000   0.97600   1.000
    H207    H    0.01110   0.75130   0.98110   1.000
    H208    H    0.97890   0.69190   0.94940   1.000
    C297    C    0.03000   0.62100   0.97100   1.000
    H209    H    0.05100   0.62110   0.99730   1.000
    H210    H    0.04220   0.64080   0.94600   1.000
    C298    C    0.01500   0.52300   0.96200   1.000
    H211    H    0.00210   0.51680   0.93090   1.000
    H212    H    0.03700   0.47960   0.96800   1.000
    C299    C    0.98600   0.50200   0.99100   1.000
    H213    H    0.95920   0.50790   0.97420   1.000
    H214    H    0.98990   0.43850   0.00200   1.000
    C300    C    0.99300   0.56800   0.02900   1.000
    H215    H    0.02040   0.56740   0.04390   1.000
    H216    H    0.97720   0.54800   0.05090   1.000
    C301    C    0.91200   0.04400   0.97900   1.000
    H217    H    0.91440   0.09540   0.99950   1.000
    H218    H    0.88810   0.05160   0.95650   1.000
    C302    C    0.91200   0.95300   0.00300   1.000
    H219    H    0.92760   0.95790   0.03250   1.000
    H220    H    0.88470   0.93820   0.00500   1.000
    C303    C    0.92800   0.87800   0.97800   1.000
    H221    H    0.91660   0.81830   0.98400   1.000
    H222    H    0.95630   0.87440   0.98740   1.000
    C304    C    0.91700   0.89800   0.92900   1.000
    H223    H    0.92140   0.84310   0.91220   1.000
    H224    H    0.88920   0.91490   0.92060   1.000
    C305    C    0.94200   0.97600   0.91800   1.000
    H225    H    0.92910   0.00610   0.89060   1.000
    H226    H    0.96760   0.95270   0.91420   1.000
    C306    C    0.94800   0.04500   0.95600   1.000
    H227    H    0.97150   0.02960   0.97760   1.000
    H228    H    0.95090   0.10720   0.94480   1.000
    C307    C    0.93080   0.26200   0.99800   1.000
    H229    H    0.90630   0.29710   0.99440   1.000
    H230    H    0.92460   0.19650   0.99300   1.000
    C308    C    0.95600   0.27700   0.04400   1.000
    H231    H    0.98390   0.26520   0.04430   1.000
    H232    H    0.94750   0.23760   0.06590   1.000
    C309    C    0.94900   0.37900   0.05300   1.000
    H233    H    0.92530   0.38650   0.06500   1.000
    H234    H    0.97140   0.40390   0.07470   1.000
    C310    C    0.94500   0.43100   0.01000   1.000
    H235    H    0.95040   0.49710   0.01500   1.000
    H236    H    0.91840   0.42430   0.99200   1.000
    C311    C    0.97500   0.39000   0.98500   1.000
    H237    H    0.00040   0.37960   0.00510   1.000
    H238    H    0.97920   0.43000   0.96100   1.000
    C312    C    0.95700   0.29700   0.96700   1.000
    H239    H    0.94090   0.30620   0.93740   1.000
    H240    H    0.97740   0.25250   0.96520   1.000
    C313    C    0.96100   0.96000   0.99300   1.000
    H241    H    0.97590   0.00380   0.97790   1.000
    H242    H    0.98000   0.91600   0.00930   1.000
    C314    C    0.94000   0.01200   0.02400   1.000
    H243    H    0.92320   0.96820   0.03580   1.000
    H244    H    0.95920   0.03660   0.04850   1.000
    C315    C    0.91500   0.09000   0.00100   1.000
    H245    H    0.93080   0.13660   0.99040   1.000
    H246    H    0.90040   0.12010   0.02170   1.000
    C316    C    0.88600   0.04700   0.96300   1.000
    H247    H    0.89100   0.06970   0.93480   1.000
    H248    H    0.85870   0.06400   0.96450   1.000
    C317    C    0.89000   0.94200   0.96500   1.000
    H249    H    0.88650   0.92100   0.99420   1.000
    H250    H    0.87010   0.91380   0.94280   1.000
    C318    C    0.93000   0.91000   0.95900   1.000
    H251    H    0.93370   0.92420   0.92910   1.000
    H252    H    0.93290   0.84320   0.96340   1.000
    C319    C    0.01100   0.18800   0.13500   1.000
    H253    H    0.98970   0.19950   0.15010   1.000
    H254    H    0.02980   0.24010   0.14100   1.000
    C320    C    0.99600   0.17900   0.08600   1.000
    H255    H    0.01120   0.21890   0.06970   1.000
    H256    H    0.96840   0.19960   0.07840   1.000
    C321    C    0.99900   0.08000   0.07100   1.000
    H257    H    0.98540   0.07410   0.03990   1.000
    H258    H    0.98460   0.04000   0.08820   1.000
    C322    C    0.04100   0.04500   0.07600   1.000
    H259    H    0.04140   0.97850   0.07170   1.000
    H260    H    0.05380   0.07510   0.05440   1.000
    C323    C    0.06200   0.07000   0.12300   1.000
    H261    H    0.07990   0.12170   0.12130   1.000
    H262    H    0.07720   0.01750   0.13600   1.000
    C324    C    0.03200   0.09800   0.15100   1.000
    H263    H    0.01250   0.04910   0.14950   1.000
    H264    H    0.04590   0.10500   0.18140   1.000
    C325    C    0.01900   0.66500   0.98500   1.000
    H265    H    0.04790   0.66950   0.99410   1.000
    H266    H    0.01040   0.70850   0.96100   1.000
    C326    C    0.00100   0.69000   0.02400   1.000
    H267    H    0.98890   0.75130   0.01890   1.000
    H268    H    0.02110   0.69190   0.05060   1.000
    C327    C    0.97000   0.62100   0.02900   1.000
    H269    H    0.94900   0.62110   0.00270   1.000
    H270    H    0.95780   0.64080   0.05400   1.000
    C328    C    0.98500   0.52300   0.03800   1.000
    H271    H    0.99790   0.51680   0.06910   1.000
    H272    H    0.96300   0.47960   0.03200   1.000
    C329    C    0.01400   0.50200   0.00900   1.000
    H273    H    0.04080   0.50790   0.02580   1.000
    H274    H    0.01010   0.43850   0.99800   1.000
    C330    C    0.00700   0.56800   0.97100   1.000
    H275    H    0.97960   0.56740   0.95610   1.000
    H276    H    0.02280   0.54800   0.94910   1.000
    C331    C    0.08800   0.04400   0.02100   1.000
    H277    H    0.08560   0.09540   0.00050   1.000
    H278    H    0.11190   0.05160   0.04350   1.000
    C332    C    0.08800   0.95300   0.99700   1.000
    H279    H    0.07240   0.95790   0.96750   1.000
    H280    H    0.11530   0.93820   0.99500   1.000
    C333    C    0.07200   0.87800   0.02200   1.000
    H281    H    0.08340   0.81830   0.01600   1.000
    H282    H    0.04370   0.87440   0.01260   1.000
    C334    C    0.08300   0.89800   0.07100   1.000
    H283    H    0.07860   0.84310   0.08780   1.000
    H284    H    0.11080   0.91490   0.07940   1.000
    C335    C    0.05800   0.97600   0.08200   1.000
    H285    H    0.07090   0.00610   0.10940   1.000
    H286    H    0.03240   0.95270   0.08580   1.000
    C336    C    0.05200   0.04500   0.04400   1.000
    H287    H    0.02850   0.02960   0.02240   1.000
    H288    H    0.04910   0.10720   0.05520   1.000
    C337    C    0.06920   0.26200   0.00200   1.000
    H289    H    0.09370   0.29710   0.00560   1.000
    H290    H    0.07540   0.19650   0.00700   1.000
    C338    C    0.04400   0.27700   0.95600   1.000
    H291    H    0.01610   0.26520   0.95570   1.000
    H292    H    0.05250   0.23760   0.93410   1.000
    C339    C    0.05100   0.37900   0.94700   1.000
    H293    H    0.07470   0.38650   0.93500   1.000
    H294    H    0.02860   0.40390   0.92530   1.000
    C340    C    0.05500   0.43100   0.99000   1.000
    H295    H    0.04960   0.49710   0.98500   1.000
    H296    H    0.08160   0.42430   0.00800   1.000
    C341    C    0.02500   0.39000   0.01500   1.000
    H297    H    0.99960   0.37960   0.99490   1.000
    H298    H    0.02080   0.43000   0.03900   1.000
    C342    C    0.04300   0.29700   0.03300   1.000
    H299    H    0.05910   0.30620   0.06260   1.000
    H300    H    0.02260   0.25250   0.03480   1.000
    C343    C    0.03900   0.96000   0.00700   1.000
    H301    H    0.02410   0.00380   0.02210   1.000
    H302    H    0.02000   0.91600   0.99070   1.000
    C344    C    0.06000   0.01200   0.97600   1.000
    H303    H    0.07680   0.96820   0.96420   1.000
    H304    H    0.04080   0.03660   0.95150   1.000
    C345    C    0.08500   0.09000   0.99900   1.000
    H305    H    0.06920   0.13660   0.00960   1.000
    H306    H    0.09960   0.12010   0.97830   1.000
    C346    C    0.11400   0.04700   0.03700   1.000
    H307    H    0.10900   0.06970   0.06520   1.000
    H308    H    0.14130   0.06400   0.03550   1.000
    C347    C    0.11000   0.94200   0.03500   1.000
    H309    H    0.11350   0.92100   0.00580   1.000
    H310    H    0.12990   0.91380   0.05720   1.000
    C348    C    0.07000   0.91000   0.04100   1.000
    H311    H    0.06630   0.92420   0.07090   1.000
    H312    H    0.06710   0.84320   0.03660   1.000
    C349    C    0.48900   0.68800   0.86500   1.000
    H313    H    0.51030   0.69950   0.84990   1.000
    H314    H    0.47020   0.74010   0.85900   1.000
    C350    C    0.50400   0.67900   0.91400   1.000
    H315    H    0.48880   0.71890   0.93030   1.000
    H316    H    0.53160   0.69960   0.92160   1.000
    C351    C    0.50100   0.58000   0.92900   1.000
    H317    H    0.51460   0.57410   0.96010   1.000
    H318    H    0.51540   0.54000   0.91180   1.000
    C352    C    0.45900   0.54500   0.92400   1.000
    H319    H    0.45860   0.47850   0.92830   1.000
    H320    H    0.44620   0.57510   0.94560   1.000
    C353    C    0.43800   0.57000   0.87700   1.000
    H321    H    0.42010   0.62170   0.87870   1.000
    H322    H    0.42280   0.51750   0.86400   1.000
    C354    C    0.46800   0.59800   0.84900   1.000
    H323    H    0.48750   0.54910   0.85050   1.000
    H324    H    0.45410   0.60500   0.81860   1.000
    C355    C    0.48100   0.16500   0.01500   1.000
    H325    H    0.45210   0.16950   0.00590   1.000
    H326    H    0.48960   0.20850   0.03900   1.000
    C356    C    0.49900   0.19000   0.97600   1.000
    H327    H    0.51110   0.25130   0.98110   1.000
    H328    H    0.47890   0.19190   0.94940   1.000
    C357    C    0.53000   0.12100   0.97100   1.000
    H329    H    0.55100   0.12110   0.99730   1.000
    H330    H    0.54220   0.14080   0.94600   1.000
    C358    C    0.51500   0.02300   0.96200   1.000
    H331    H    0.50210   0.01680   0.93090   1.000
    H332    H    0.53700   0.97960   0.96800   1.000
    C359    C    0.48600   0.00200   0.99100   1.000
    H333    H    0.45920   0.00790   0.97420   1.000
    H334    H    0.48990   0.93850   0.00200   1.000
    C360    C    0.49300   0.06800   0.02900   1.000
    H335    H    0.52040   0.06740   0.04390   1.000
    H336    H    0.47720   0.04800   0.05090   1.000
    C361    C    0.41200   0.54400   0.97900   1.000
    H337    H    0.41440   0.59540   0.99950   1.000
    H338    H    0.38810   0.55160   0.95650   1.000
    C362    C    0.41200   0.45300   0.00300   1.000
    H339    H    0.42760   0.45790   0.03250   1.000
    H340    H    0.38470   0.43820   0.00500   1.000
    C363    C    0.42800   0.37800   0.97800   1.000
    H341    H    0.41660   0.31830   0.98400   1.000
    H342    H    0.45630   0.37440   0.98740   1.000
    C364    C    0.41700   0.39800   0.92900   1.000
    H343    H    0.42140   0.34310   0.91220   1.000
    H344    H    0.38920   0.41490   0.92060   1.000
    C365    C    0.44200   0.47600   0.91800   1.000
    H345    H    0.42910   0.50610   0.89060   1.000
    H346    H    0.46760   0.45270   0.91420   1.000
    C366    C    0.44800   0.54500   0.95600   1.000
    H347    H    0.47150   0.52960   0.97760   1.000
    H348    H    0.45090   0.60720   0.94480   1.000
    C367    C    0.43080   0.76200   0.99800   1.000
    H349    H    0.40630   0.79710   0.99440   1.000
    H350    H    0.42460   0.69650   0.99300   1.000
    C368    C    0.45600   0.77700   0.04400   1.000
    H351    H    0.48390   0.76520   0.04430   1.000
    H352    H    0.44750   0.73760   0.06590   1.000
    C369    C    0.44900   0.87900   0.05300   1.000
    H353    H    0.42530   0.88650   0.06500   1.000
    H354    H    0.47140   0.90390   0.07470   1.000
    C370    C    0.44500   0.93100   0.01000   1.000
    H355    H    0.45040   0.99710   0.01500   1.000
    H356    H    0.41840   0.92430   0.99200   1.000
    C371    C    0.47500   0.89000   0.98500   1.000
    H357    H    0.50040   0.87960   0.00510   1.000
    H358    H    0.47920   0.93000   0.96100   1.000
    C372    C    0.45700   0.79700   0.96700   1.000
    H359    H    0.44090   0.80620   0.93740   1.000
    H360    H    0.47740   0.75250   0.96520   1.000
    C373    C    0.46100   0.46000   0.99300   1.000
    H361    H    0.47590   0.50380   0.97790   1.000
    H362    H    0.48000   0.41600   0.00930   1.000
    C374    C    0.44000   0.51200   0.02400   1.000
    H363    H    0.42320   0.46820   0.03580   1.000
    H364    H    0.45920   0.53660   0.04850   1.000
    C375    C    0.41500   0.59000   0.00100   1.000
    H365    H    0.43080   0.63660   0.99040   1.000
    H366    H    0.40040   0.62010   0.02170   1.000
    C376    C    0.38600   0.54700   0.96300   1.000
    H367    H    0.39100   0.56970   0.93480   1.000
    H368    H    0.35870   0.56400   0.96450   1.000
    C377    C    0.39000   0.44200   0.96500   1.000
    H369    H    0.38650   0.42100   0.99420   1.000
    H370    H    0.37010   0.41380   0.94280   1.000
    C378    C    0.43000   0.41000   0.95900   1.000
    H371    H    0.43370   0.42420   0.92910   1.000
    H372    H    0.43290   0.34320   0.96340   1.000
    C379    C    0.51100   0.68800   0.13500   1.000
    H373    H    0.48970   0.69950   0.15010   1.000
    H374    H    0.52980   0.74010   0.14100   1.000
    C380    C    0.49600   0.67900   0.08600   1.000
    H375    H    0.51120   0.71890   0.06970   1.000
    H376    H    0.46840   0.69960   0.07840   1.000
    C381    C    0.49900   0.58000   0.07100   1.000
    H377    H    0.48540   0.57410   0.03990   1.000
    H378    H    0.48460   0.54000   0.08820   1.000
    C382    C    0.54100   0.54500   0.07600   1.000
    H379    H    0.54140   0.47850   0.07170   1.000
    H380    H    0.55380   0.57510   0.05440   1.000
    C383    C    0.56200   0.57000   0.12300   1.000
    H381    H    0.57990   0.62170   0.12130   1.000
    H382    H    0.57720   0.51750   0.13600   1.000
    C384    C    0.53200   0.59800   0.15100   1.000
    H383    H    0.51250   0.54910   0.14950   1.000
    H384    H    0.54590   0.60500   0.18140   1.000
    C385    C    0.51900   0.16500   0.98500   1.000
    H385    H    0.54790   0.16950   0.99410   1.000
    H386    H    0.51040   0.20850   0.96100   1.000
    C386    C    0.50100   0.19000   0.02400   1.000
    H387    H    0.48890   0.25130   0.01890   1.000
    H388    H    0.52110   0.19190   0.05060   1.000
    C387    C    0.47000   0.12100   0.02900   1.000
    H389    H    0.44900   0.12110   0.00270   1.000
    H390    H    0.45780   0.14080   0.05400   1.000
    C388    C    0.48500   0.02300   0.03800   1.000
    H391    H    0.49790   0.01680   0.06910   1.000
    H392    H    0.46300   0.97960   0.03200   1.000
    C389    C    0.51400   0.00200   0.00900   1.000
    H393    H    0.54080   0.00790   0.02580   1.000
    H394    H    0.51010   0.93850   0.99800   1.000
    C390    C    0.50700   0.06800   0.97100   1.000
    H395    H    0.47960   0.06740   0.95610   1.000
    H396    H    0.52280   0.04800   0.94910   1.000
    C391    C    0.58800   0.54400   0.02100   1.000
    H397    H    0.58560   0.59540   0.00050   1.000
    H398    H    0.61190   0.55160   0.04350   1.000
    C392    C    0.58800   0.45300   0.99700   1.000
    H399    H    0.57240   0.45790   0.96750   1.000
    H400    H    0.61530   0.43820   0.99500   1.000
    C393    C    0.57200   0.37800   0.02200   1.000
    H401    H    0.58340   0.31830   0.01600   1.000
    H402    H    0.54370   0.37440   0.01260   1.000
    C394    C    0.58300   0.39800   0.07100   1.000
    H403    H    0.57860   0.34310   0.08780   1.000
    H404    H    0.61080   0.41490   0.07940   1.000
    C395    C    0.55800   0.47600   0.08200   1.000
    H405    H    0.57090   0.50610   0.10940   1.000
    H406    H    0.53240   0.45270   0.08580   1.000
    C396    C    0.55200   0.54500   0.04400   1.000
    H407    H    0.52850   0.52960   0.02240   1.000
    H408    H    0.54910   0.60720   0.05520   1.000
    C397    C    0.56920   0.76200   0.00200   1.000
    H409    H    0.59370   0.79710   0.00560   1.000
    H410    H    0.57540   0.69650   0.00700   1.000
    C398    C    0.54400   0.77700   0.95600   1.000
    H411    H    0.51610   0.76520   0.95570   1.000
    H412    H    0.55250   0.73760   0.93410   1.000
    C399    C    0.55100   0.87900   0.94700   1.000
    H413    H    0.57470   0.88650   0.93500   1.000
    H414    H    0.52860   0.90390   0.92530   1.000
    C400    C    0.55500   0.93100   0.99000   1.000
    H415    H    0.54960   0.99710   0.98500   1.000
    H416    H    0.58160   0.92430   0.00800   1.000
    C401    C    0.52500   0.89000   0.01500   1.000
    H417    H    0.49960   0.87960   0.99490   1.000
    H418    H    0.52080   0.93000   0.03900   1.000
    C402    C    0.54300   0.79700   0.03300   1.000
    H419    H    0.55910   0.80620   0.06260   1.000
    H420    H    0.52260   0.75250   0.03480   1.000
    C403    C    0.53900   0.46000   0.00700   1.000
    H421    H    0.52410   0.50380   0.02210   1.000
    H422    H    0.52000   0.41600   0.99070   1.000
    C404    C    0.56000   0.51200   0.97600   1.000
    H423    H    0.57680   0.46820   0.96420   1.000
    H424    H    0.54080   0.53660   0.95150   1.000
    C405    C    0.58500   0.59000   0.99900   1.000
    H425    H    0.56920   0.63660   0.00960   1.000
    H426    H    0.59960   0.62010   0.97830   1.000
    C406    C    0.61400   0.54700   0.03700   1.000
    H427    H    0.60900   0.56970   0.06520   1.000
    H428    H    0.64130   0.56400   0.03550   1.000
    C407    C    0.61000   0.44200   0.03500   1.000
    H429    H    0.61350   0.42100   0.00580   1.000
    H430    H    0.62990   0.41380   0.05720   1.000
    C408    C    0.57000   0.41000   0.04100   1.000
    H431    H    0.56630   0.42420   0.07090   1.000
    H432    H    0.56710   0.34320   0.03660   1.000
