# CIF file generated by openbabel 2.4.1, see http://openbabel.sf.net
data_I
_chemical_name_common 'image0'
_cell_length_a 14.392
_cell_length_b 14.392
_cell_length_c 17.416
_cell_angle_alpha 90
_cell_angle_beta 90
_cell_angle_gamma 120
_space_group_name_H-M_alt 'P 1'
_space_group_name_Hall 'P 1'
loop_
    _symmetry_equiv_pos_as_xyz
    x,y,z
loop_
    _atom_site_label
    _atom_site_type_symbol
    _atom_site_fract_x
    _atom_site_fract_y
    _atom_site_fract_z
    _atom_site_occupancy
    O1      O    0.65370   0.50060   0.16603   1.000
    C1      C    0.59690   0.56710   0.03390   1.000
    O2      O    0.69890   0.63880   0.05760   1.000
    H1      H    0.72610   0.60550   0.07880   1.000
    H2      H    0.66400   0.61470   0.05700   1.000
    O3      O    0.49940   0.15310   0.16603   1.000
    C2      C    0.43290   0.02980   0.03390   1.000
    O4      O    0.36120   0.06010   0.05760   1.000
    H3      H    0.39450   0.12060   0.07880   1.000
    H4      H    0.38530   0.04930   0.05700   1.000
    O5      O    0.84690   0.34630   0.16603   1.000
    C3      C    0.97020   0.40310   0.03390   1.000
    O6      O    0.93990   0.30110   0.05760   1.000
    H5      H    0.87940   0.27390   0.07880   1.000
    H6      H    0.95070   0.33600   0.05700   1.000
    O7      O    0.34630   0.49940   0.66603   1.000
    C4      C    0.40310   0.43290   0.53390   1.000
    O8      O    0.30110   0.36120   0.55760   1.000
    H7      H    0.27390   0.39450   0.57880   1.000
    H8      H    0.33600   0.38530   0.55700   1.000
    O9      O    0.50060   0.84690   0.66603   1.000
    C5      C    0.56710   0.97020   0.53390   1.000
    O10     O    0.63880   0.93990   0.55760   1.000
    H9      H    0.60550   0.87940   0.57880   1.000
    H10     H    0.61470   0.95070   0.55700   1.000
    O11     O    0.15310   0.65370   0.66603   1.000
    C6      C    0.02980   0.59690   0.53390   1.000
    O12     O    0.06010   0.69890   0.55760   1.000
    H11     H    0.12060   0.72610   0.57880   1.000
    H12     H    0.04930   0.66400   0.55700   1.000
    O13     O    0.50060   0.65370   0.83397   1.000
    C7      C    0.56710   0.59690   0.96610   1.000
    O14     O    0.63880   0.69890   0.94240   1.000
    H13     H    0.60550   0.72610   0.92120   1.000
    H14     H    0.61470   0.66400   0.94300   1.000
    O15     O    0.15310   0.49940   0.83397   1.000
    C8      C    0.02980   0.43290   0.96610   1.000
    O16     O    0.06010   0.36120   0.94240   1.000
    H15     H    0.12060   0.39450   0.92120   1.000
    H16     H    0.04930   0.38530   0.94300   1.000
    O17     O    0.34630   0.84690   0.83397   1.000
    C9      C    0.40310   0.97020   0.96610   1.000
    O18     O    0.30110   0.93990   0.94240   1.000
    H17     H    0.27390   0.87940   0.92120   1.000
    H18     H    0.33600   0.95070   0.94300   1.000
    O19     O    0.49940   0.34630   0.33397   1.000
    C10     C    0.43290   0.40310   0.46610   1.000
    O20     O    0.36120   0.30110   0.44240   1.000
    H19     H    0.39450   0.27390   0.42120   1.000
    H20     H    0.38530   0.33600   0.44300   1.000
    O21     O    0.84690   0.50060   0.33397   1.000
    C11     C    0.97020   0.56710   0.46610   1.000
    O22     O    0.93990   0.63880   0.44240   1.000
    H21     H    0.87940   0.60550   0.42120   1.000
    H22     H    0.95070   0.61470   0.44300   1.000
    O23     O    0.65370   0.15310   0.33397   1.000
    C12     C    0.59690   0.02980   0.46610   1.000
    O24     O    0.69890   0.06010   0.44240   1.000
    H23     H    0.72610   0.12060   0.42120   1.000
    H24     H    0.66400   0.04930   0.44300   1.000
    O25     O    0.34630   0.49940   0.83397   1.000
    C13     C    0.40310   0.43290   0.96610   1.000
    O26     O    0.30110   0.36120   0.94240   1.000
    H25     H    0.27390   0.39450   0.92120   1.000
    H26     H    0.33600   0.38530   0.94300   1.000
    O27     O    0.50060   0.84690   0.83397   1.000
    C14     C    0.56710   0.97020   0.96610   1.000
    O28     O    0.63880   0.93990   0.94240   1.000
    H27     H    0.60550   0.87940   0.92120   1.000
    H28     H    0.61470   0.95070   0.94300   1.000
    O29     O    0.15310   0.65370   0.83397   1.000
    C15     C    0.02980   0.59690   0.96610   1.000
    O30     O    0.06010   0.69890   0.94240   1.000
    H29     H    0.12060   0.72610   0.92120   1.000
    H30     H    0.04930   0.66400   0.94300   1.000
    O31     O    0.65370   0.50060   0.33397   1.000
    C16     C    0.59690   0.56710   0.46610   1.000
    O32     O    0.69890   0.63880   0.44240   1.000
    H31     H    0.72610   0.60550   0.42120   1.000
    H32     H    0.66400   0.61470   0.44300   1.000
    O33     O    0.49940   0.15310   0.33397   1.000
    C17     C    0.43290   0.02980   0.46610   1.000
    O34     O    0.36120   0.06010   0.44240   1.000
    H33     H    0.39450   0.12060   0.42120   1.000
    H34     H    0.38530   0.04930   0.44300   1.000
    O35     O    0.84690   0.34630   0.33397   1.000
    C18     C    0.97020   0.40310   0.46610   1.000
    O36     O    0.93990   0.30110   0.44240   1.000
    H35     H    0.87940   0.27390   0.42120   1.000
    H36     H    0.95070   0.33600   0.44300   1.000
    O37     O    0.49940   0.34630   0.16603   1.000
    C19     C    0.43290   0.40310   0.03390   1.000
    O38     O    0.36120   0.30110   0.05760   1.000
    H37     H    0.39450   0.27390   0.07880   1.000
    H38     H    0.38530   0.33600   0.05700   1.000
    O39     O    0.84690   0.50060   0.16603   1.000
    C20     C    0.97020   0.56710   0.03390   1.000
    O40     O    0.93990   0.63880   0.05760   1.000
    H39     H    0.87940   0.60550   0.07880   1.000
    H40     H    0.95070   0.61470   0.05700   1.000
    O41     O    0.65370   0.15310   0.16603   1.000
    C21     C    0.59690   0.02980   0.03390   1.000
    O42     O    0.69890   0.06010   0.05760   1.000
    H41     H    0.72610   0.12060   0.07880   1.000
    H42     H    0.66400   0.04930   0.05700   1.000
    O43     O    0.50060   0.65370   0.66603   1.000
    C22     C    0.56710   0.59690   0.53390   1.000
    O44     O    0.63880   0.69890   0.55760   1.000
    H43     H    0.60550   0.72610   0.57880   1.000
    H44     H    0.61470   0.66400   0.55700   1.000
    O45     O    0.15310   0.49940   0.66603   1.000
    C23     C    0.02980   0.43290   0.53390   1.000
    O46     O    0.06010   0.36120   0.55760   1.000
    H45     H    0.12060   0.39450   0.57880   1.000
    H46     H    0.04930   0.38530   0.55700   1.000
    O47     O    0.34630   0.84690   0.66603   1.000
    C24     C    0.40310   0.97020   0.53390   1.000
    O48     O    0.30110   0.93990   0.55760   1.000
    H47     H    0.27390   0.87940   0.57880   1.000
    H48     H    0.33600   0.95070   0.55700   1.000
    Fe1     Fe   0.74400   0.48800   0.25000   1.000
    O49     O    0.82675   0.65350   0.25000   1.000
    Co1     Co   0.74200   0.48400   0.25000   1.000
    Fe2     Fe   0.51200   0.25600   0.25000   1.000
    O50     O    0.34650   0.17325   0.25000   1.000
    Co2     Co   0.51600   0.25800   0.25000   1.000
    Fe3     Fe   0.74400   0.25600   0.25000   1.000
    O51     O    0.82675   0.17325   0.25000   1.000
    Co3     Co   0.74200   0.25800   0.25000   1.000
    Fe4     Fe   0.25600   0.51200   0.75000   1.000
    O52     O    0.17325   0.34650   0.75000   1.000
    Co4     Co   0.25800   0.51600   0.75000   1.000
    Fe5     Fe   0.48800   0.74400   0.75000   1.000
    O53     O    0.65350   0.82675   0.75000   1.000
    Co5     Co   0.48400   0.74200   0.75000   1.000
    Fe6     Fe   0.25600   0.74400   0.75000   1.000
    O54     O    0.17325   0.82675   0.75000   1.000
    Co6     Co   0.25800   0.74200   0.75000   1.000
    O55     O    0.66667   0.33333   0.25000   1.000
    O56     O    0.33333   0.66667   0.75000   1.000
    C25     C    0.56330   0.43670   0.13750   1.000
    C26     C    0.53020   0.46980   0.06740   1.000
    C27     C    0.56330   0.12660   0.13750   1.000
    C28     C    0.53020   0.06040   0.06740   1.000
    C29     C    0.87340   0.43670   0.13750   1.000
    C30     C    0.93960   0.46980   0.06740   1.000
    C31     C    0.43670   0.56330   0.63750   1.000
    C32     C    0.46980   0.53020   0.56740   1.000
    C33     C    0.43670   0.87340   0.63750   1.000
    C34     C    0.46980   0.93960   0.56740   1.000
    C35     C    0.12660   0.56330   0.63750   1.000
    C36     C    0.06040   0.53020   0.56740   1.000
    C37     C    0.43670   0.56330   0.86250   1.000
    C38     C    0.46980   0.53020   0.93260   1.000
    C39     C    0.12660   0.56330   0.86250   1.000
    C40     C    0.06040   0.53020   0.93260   1.000
    C41     C    0.43670   0.87340   0.86250   1.000
    C42     C    0.46980   0.93960   0.93260   1.000
    C43     C    0.56330   0.43670   0.36250   1.000
    C44     C    0.53020   0.46980   0.43260   1.000
    C45     C    0.87340   0.43670   0.36250   1.000
    C46     C    0.93960   0.46980   0.43260   1.000
    C47     C    0.56330   0.12660   0.36250   1.000
    C48     C    0.53020   0.06040   0.43260   1.000
