# CIF file generated by openbabel 2.4.1, see http://openbabel.sf.net
data_I
_chemical_name_common 'image0'
_cell_length_a 9.086
_cell_length_b 9.086
_cell_length_c 19.164
_cell_angle_alpha 90
_cell_angle_beta 90
_cell_angle_gamma 120
_space_group_name_H-M_alt 'P 1'
_space_group_name_Hall 'P 1'
loop_
    _symmetry_equiv_pos_as_xyz
    x,y,z
loop_
    _atom_site_label
    _atom_site_type_symbol
    _atom_site_fract_x
    _atom_site_fract_y
    _atom_site_fract_z
    _atom_site_occupancy
    C1      C    0.62120   0.77140   0.41020   1.000
    H1      H    0.60720   0.68700   0.37900   1.000
    C2      C    0.65410   0.93690   0.39230   1.000
    H2      H    0.66560   0.97980   0.34740   1.000
    C3      C    0.66660   0.02530   0.45520   1.000
    H3      H    0.68760   0.13620   0.45860   1.000
    C4      C    0.64130   0.91440   0.51190   1.000
    H4      H    0.64290   0.94010   0.55900   1.000
    C5      C    0.61330   0.75760   0.48410   1.000
    H5      H    0.59320   0.66250   0.50980   1.000
    C6      C    0.61920   0.84300   0.40440   1.000
    H6      H    0.60440   0.91290   0.37320   1.000
    C7      C    0.64440   0.70550   0.38660   1.000
    H7      H    0.64900   0.66950   0.34160   1.000
    C8      C    0.66130   0.63260   0.44950   1.000
    H8      H    0.67890   0.54040   0.45290   1.000
    C9      C    0.64650   0.72500   0.50620   1.000
    H9      H    0.65280   0.70410   0.55330   1.000
    C10     C    0.62050   0.85510   0.47830   1.000
    H10     H    0.60680   0.93430   0.50400   1.000
    O1      O    0.99430   0.99380   0.27050   1.000
    O2      O    0.00820   0.00040   0.60590   1.000
    C11     C    0.95990   0.01340   0.24410   1.000
    C12     C    0.02990   0.13560   0.16030   1.000
    C13     C    0.91550   0.02160   0.16210   1.000
    C14     C    0.04780   0.13840   0.22880   1.000
    C15     C    0.22860   0.84980   0.41020   1.000
    H11     H    0.31300   0.92020   0.37900   1.000
    C16     C    0.06310   0.71720   0.39230   1.000
    H12     H    0.02020   0.68580   0.34740   1.000
    C17     C    0.97470   0.64130   0.45520   1.000
    H13     H    0.86380   0.55140   0.45860   1.000
    C18     C    0.08560   0.72690   0.51190   1.000
    H14     H    0.05990   0.70280   0.55900   1.000
    C19     C    0.24240   0.85570   0.48410   1.000
    H15     H    0.33750   0.93070   0.50980   1.000
    C20     C    0.15700   0.77620   0.40440   1.000
    H16     H    0.08710   0.69150   0.37320   1.000
    C21     C    0.29450   0.93890   0.38660   1.000
    H17     H    0.33050   0.97950   0.34160   1.000
    C22     C    0.36740   0.02870   0.44950   1.000
    H18     H    0.45960   0.13850   0.45290   1.000
    C23     C    0.27500   0.92150   0.50620   1.000
    H19     H    0.29590   0.94870   0.55330   1.000
    C24     C    0.14490   0.76540   0.47830   1.000
    H20     H    0.06570   0.67250   0.50400   1.000
    O3      O    0.00620   0.00050   0.27050   1.000
    O4      O    0.99960   0.00780   0.60590   1.000
    C25     C    0.98660   0.94650   0.24410   1.000
    C26     C    0.86440   0.89430   0.16030   1.000
    C27     C    0.97840   0.89390   0.16210   1.000
    C28     C    0.86160   0.90940   0.22880   1.000
    C29     C    0.15020   0.37880   0.41020   1.000
    H21     H    0.07980   0.39280   0.37900   1.000
    C30     C    0.28280   0.34590   0.39230   1.000
    H22     H    0.31420   0.33440   0.34740   1.000
    C31     C    0.35870   0.33340   0.45520   1.000
    H23     H    0.44860   0.31240   0.45860   1.000
    C32     C    0.27310   0.35870   0.51190   1.000
    H24     H    0.29720   0.35710   0.55900   1.000
    C33     C    0.14430   0.38670   0.48410   1.000
    H25     H    0.06930   0.40680   0.50980   1.000
    C34     C    0.22380   0.38080   0.40440   1.000
    H26     H    0.30850   0.39560   0.37320   1.000
    C35     C    0.06110   0.35560   0.38660   1.000
    H27     H    0.02050   0.35100   0.34160   1.000
    C36     C    0.97130   0.33870   0.44950   1.000
    H28     H    0.86150   0.32110   0.45290   1.000
    C37     C    0.07850   0.35350   0.50620   1.000
    H29     H    0.05130   0.34720   0.55330   1.000
    C38     C    0.23460   0.37950   0.47830   1.000
    H30     H    0.32750   0.39320   0.50400   1.000
    O5      O    0.99950   0.00570   0.27050   1.000
    O6      O    0.99220   0.99180   0.60590   1.000
    C39     C    0.05350   0.04010   0.24410   1.000
    C40     C    0.10570   0.97010   0.16030   1.000
    C41     C    0.10610   0.08450   0.16210   1.000
    C42     C    0.09060   0.95220   0.22880   1.000
    C43     C    0.37880   0.22860   0.91020   1.000
    H31     H    0.39280   0.31300   0.87900   1.000
    C44     C    0.34590   0.06310   0.89230   1.000
    H32     H    0.33440   0.02020   0.84740   1.000
    C45     C    0.33340   0.97470   0.95520   1.000
    H33     H    0.31240   0.86380   0.95860   1.000
    C46     C    0.35870   0.08560   0.01190   1.000
    H34     H    0.35710   0.05990   0.05900   1.000
    C47     C    0.38670   0.24240   0.98410   1.000
    H35     H    0.40680   0.33750   0.00980   1.000
    C48     C    0.38080   0.15700   0.90440   1.000
    H36     H    0.39560   0.08710   0.87320   1.000
    C49     C    0.35560   0.29450   0.88660   1.000
    H37     H    0.35100   0.33050   0.84160   1.000
    C50     C    0.33870   0.36740   0.94950   1.000
    H38     H    0.32110   0.45960   0.95290   1.000
    C51     C    0.35350   0.27500   0.00620   1.000
    H39     H    0.34720   0.29590   0.05330   1.000
    C52     C    0.37950   0.14490   0.97830   1.000
    H40     H    0.39320   0.06570   0.00400   1.000
    O7      O    0.00570   0.00620   0.77050   1.000
    O8      O    0.99180   0.99960   0.10590   1.000
    C53     C    0.04010   0.98660   0.74410   1.000
    C54     C    0.97010   0.86440   0.66030   1.000
    C55     C    0.08450   0.97840   0.66210   1.000
    C56     C    0.95220   0.86160   0.72880   1.000
    C57     C    0.77140   0.15020   0.91020   1.000
    H41     H    0.68700   0.07980   0.87900   1.000
    C58     C    0.93690   0.28280   0.89230   1.000
    H42     H    0.97980   0.31420   0.84740   1.000
    C59     C    0.02530   0.35870   0.95520   1.000
    H43     H    0.13620   0.44860   0.95860   1.000
    C60     C    0.91440   0.27310   0.01190   1.000
    H44     H    0.94010   0.29720   0.05900   1.000
    C61     C    0.75760   0.14430   0.98410   1.000
    H45     H    0.66250   0.06930   0.00980   1.000
    C62     C    0.84300   0.22380   0.90440   1.000
    H46     H    0.91290   0.30850   0.87320   1.000
    C63     C    0.70550   0.06110   0.88660   1.000
    H47     H    0.66950   0.02050   0.84160   1.000
    C64     C    0.63260   0.97130   0.94950   1.000
    H48     H    0.54040   0.86150   0.95290   1.000
    C65     C    0.72500   0.07850   0.00620   1.000
    H49     H    0.70410   0.05130   0.05330   1.000
    C66     C    0.85510   0.23460   0.97830   1.000
    H50     H    0.93430   0.32750   0.00400   1.000
    O9      O    0.99380   0.99950   0.77050   1.000
    O10     O    0.00040   0.99220   0.10590   1.000
    C67     C    0.01340   0.05350   0.74410   1.000
    C68     C    0.13560   0.10570   0.66030   1.000
    C69     C    0.02160   0.10610   0.66210   1.000
    C70     C    0.13840   0.09060   0.72880   1.000
    C71     C    0.84980   0.62120   0.91020   1.000
    H51     H    0.92020   0.60720   0.87900   1.000
    C72     C    0.71720   0.65410   0.89230   1.000
    H52     H    0.68580   0.66560   0.84740   1.000
    C73     C    0.64130   0.66660   0.95520   1.000
    H53     H    0.55140   0.68760   0.95860   1.000
    C74     C    0.72690   0.64130   0.01190   1.000
    H54     H    0.70280   0.64290   0.05900   1.000
    C75     C    0.85570   0.61330   0.98410   1.000
    H55     H    0.93070   0.59320   0.00980   1.000
    C76     C    0.77620   0.61920   0.90440   1.000
    H56     H    0.69150   0.60440   0.87320   1.000
    C77     C    0.93890   0.64440   0.88660   1.000
    H57     H    0.97950   0.64900   0.84160   1.000
    C78     C    0.02870   0.66130   0.94950   1.000
    H58     H    0.13850   0.67890   0.95290   1.000
    C79     C    0.92150   0.64650   0.00620   1.000
    H59     H    0.94870   0.65280   0.05330   1.000
    C80     C    0.76540   0.62050   0.97830   1.000
    H60     H    0.67250   0.60680   0.00400   1.000
    O11     O    0.00050   0.99430   0.77050   1.000
    O12     O    0.00780   0.00820   0.10590   1.000
    C81     C    0.94650   0.95990   0.74410   1.000
    C82     C    0.89430   0.02990   0.66030   1.000
    C83     C    0.89390   0.91550   0.66210   1.000
    C84     C    0.90940   0.04780   0.72880   1.000
    Mn1     Mn   0.33333   0.66667   0.44584   1.000
    Mn2     Mn   0.66667   0.33333   0.94584   1.000
    K1      K    0.00000   0.00000   0.42470   1.000
    K2      K    0.00000   0.00000   0.47490   1.000
    K3      K    0.00000   0.00000   0.92470   1.000
    K4      K    0.00000   0.00000   0.97490   1.000
