# CIF file generated by openbabel 2.4.1, see http://openbabel.sf.net
data_I
_chemical_name_common 'cg801267m_si_003_clean'
_cell_length_a 16.6335
_cell_length_b 16.6335
_cell_length_c 17.1914
_cell_angle_alpha 61.067
_cell_angle_beta 61.067
_cell_angle_gamma 89.9991
_space_group_name_H-M_alt 'P 1'
_space_group_name_Hall 'P 1'
loop_
    _symmetry_equiv_pos_as_xyz
    x,y,z
loop_
    _atom_site_label
    _atom_site_type_symbol
    _atom_site_fract_x
    _atom_site_fract_y
    _atom_site_fract_z
    _atom_site_occupancy
    Zn1     Zn   0.44223   0.44223   0.11554   1.000
    Zn2     Zn   0.55777   0.55777   0.88446   1.000
    Fe1     Fe   0.00000   0.00000   0.00000   1.000
    H1      H    0.92570   0.70120   0.00000   1.000
    H2      H    0.30420   0.45930   0.29600   1.000
    H3      H    0.90460   0.73440   0.36100   1.000
    H4      H    0.17170   0.17170   0.82380   1.000
    H5      H    0.62690   0.78620   0.52460   1.000
    H6      H    0.99550   0.99550   0.17620   1.000
    H7      H    0.09540   0.26560   0.63900   1.000
    H8      H    0.29880   0.07430   0.00000   1.000
    H9      H    0.62690   0.68920   0.52460   1.000
    H10     H    0.60020   0.54070   0.70400   1.000
    H11     H    0.39720   0.39720   0.84060   1.000
    H12     H    0.69580   0.54070   0.70400   1.000
    H13     H    0.26560   0.09540   0.63900   1.000
    H14     H    0.99550   0.82830   0.17620   1.000
    H15     H    0.82830   0.99550   0.17620   1.000
    H16     H    0.60280   0.60280   0.15940   1.000
    H17     H    0.68920   0.62690   0.52460   1.000
    H18     H    0.31080   0.37310   0.47540   1.000
    H19     H    0.23780   0.23780   0.15940   1.000
    H20     H    0.29860   0.86060   0.84080   1.000
    H21     H    0.84850   0.68920   0.52460   1.000
    H22     H    0.26560   0.26560   0.63900   1.000
    H23     H    0.29880   0.92570   0.00000   1.000
    H24     H    0.29860   0.29860   0.84080   1.000
    H25     H    0.15150   0.21380   0.47540   1.000
    H26     H    0.82830   0.82830   0.17620   1.000
    H27     H    0.00450   0.17170   0.82380   1.000
    H28     H    0.13940   0.13940   0.15920   1.000
    H29     H    0.70120   0.92570   0.00000   1.000
    H30     H    0.17170   0.00450   0.82380   1.000
    H31     H    0.24470   0.30420   0.29600   1.000
    H32     H    0.15150   0.31080   0.47540   1.000
    H33     H    0.68920   0.84850   0.52460   1.000
    H34     H    0.45930   0.39980   0.29600   1.000
    H35     H    0.07430   0.29880   0.00000   1.000
    H36     H    0.39980   0.45930   0.29600   1.000
    H37     H    0.30420   0.24470   0.29600   1.000
    H38     H    0.39720   0.76220   0.84060   1.000
    H39     H    0.21380   0.37310   0.47540   1.000
    H40     H    0.78620   0.62690   0.52460   1.000
    H41     H    0.86060   0.86060   0.84080   1.000
    H42     H    0.75530   0.60020   0.70400   1.000
    H43     H    0.37310   0.21380   0.47540   1.000
    H44     H    0.76220   0.39720   0.84060   1.000
    H45     H    0.54070   0.60020   0.70400   1.000
    H46     H    0.92570   0.29880   0.00000   1.000
    H47     H    0.70140   0.13940   0.15920   1.000
    H48     H    0.09540   0.09540   0.63900   1.000
    H49     H    0.69580   0.75530   0.70400   1.000
    H50     H    0.84850   0.78620   0.52460   1.000
    H51     H    0.13940   0.70140   0.15920   1.000
    H52     H    0.39980   0.24470   0.29600   1.000
    H53     H    0.07430   0.70120   0.00000   1.000
    H54     H    0.73440   0.73440   0.36100   1.000
    H55     H    0.75530   0.69580   0.70400   1.000
    H56     H    0.60280   0.23780   0.15940   1.000
    H57     H    0.37310   0.31080   0.47540   1.000
    H58     H    0.90460   0.90460   0.36100   1.000
    H59     H    0.23780   0.60280   0.15940   1.000
    H60     H    0.54070   0.69580   0.70400   1.000
    H61     H    0.73440   0.90460   0.36100   1.000
    H62     H    0.21380   0.15150   0.47540   1.000
    H63     H    0.45930   0.30420   0.29600   1.000
    H64     H    0.70140   0.70140   0.15920   1.000
    H65     H    0.70120   0.07430   0.00000   1.000
    H66     H    0.31080   0.15150   0.47540   1.000
    H67     H    0.60020   0.75530   0.70400   1.000
    H68     H    0.76220   0.76220   0.84060   1.000
    H69     H    0.86060   0.29860   0.84080   1.000
    H70     H    0.24470   0.39980   0.29600   1.000
    H71     H    0.00450   0.00450   0.82380   1.000
    H72     H    0.78620   0.84850   0.52460   1.000
    C1      C    0.06584   0.16995   0.00000   1.000
    C2      C    0.16995   0.93416   0.00000   1.000
    C3      C    0.30570   0.39520   0.33360   1.000
    C4      C    0.83005   0.93416   0.00000   1.000
    C5      C    0.06584   0.83005   0.00000   1.000
    C6      C    0.65530   0.74830   0.56020   1.000
    C7      C    0.28550   0.28550   0.90674   1.000
    C8      C    0.93416   0.83005   0.00000   1.000
    C9      C    0.78790   0.78790   0.32500   1.000
    C10     C    0.28550   0.80776   0.90674   1.000
    C11     C    0.25070   0.25070   0.49860   1.000
    C12     C    0.74917   0.74917   0.90646   1.000
    C13     C    0.60866   0.39134   0.00000   1.000
    C14     C    0.39520   0.30570   0.33360   1.000
    C15     C    0.63930   0.72880   0.66640   1.000
    C16     C    0.11290   0.21210   0.67500   1.000
    C17     C    0.80776   0.80776   0.90674   1.000
    C18     C    0.19170   0.19170   0.61660   1.000
    C19     C    0.69430   0.72880   0.66640   1.000
    C20     C    0.93416   0.16995   0.00000   1.000
    C21     C    0.19224   0.71450   0.09326   1.000
    C22     C    0.74830   0.78450   0.56020   1.000
    C23     C    0.21550   0.30850   0.43980   1.000
    C24     C    0.36070   0.27120   0.33360   1.000
    C25     C    0.34470   0.25170   0.43980   1.000
    C26     C    0.60866   0.60866   0.00000   1.000
    C27     C    0.74713   0.95970   0.00000   1.000
    C28     C    0.39134   0.60866   0.00000   1.000
    C29     C    0.85436   0.14564   0.00000   1.000
    C30     C    0.30850   0.21550   0.43980   1.000
    C31     C    0.80830   0.80830   0.38340   1.000
    C32     C    0.05850   0.05850   0.78580   1.000
    C33     C    0.88710   0.78790   0.32500   1.000
    C34     C    0.14564   0.85436   0.00000   1.000
    C35     C    0.15570   0.15570   0.78580   1.000
    C36     C    0.94150   0.94150   0.21420   1.000
    C37     C    0.20894   0.20894   0.00000   1.000
    C38     C    0.39134   0.39134   0.00000   1.000
    C39     C    0.69150   0.65530   0.56020   1.000
    C40     C    0.21550   0.25170   0.43980   1.000
    C41     C    0.69150   0.78450   0.56020   1.000
    C42     C    0.67274   0.67274   0.00000   1.000
    C43     C    0.74713   0.04030   0.00000   1.000
    C44     C    0.63930   0.60480   0.66640   1.000
    C45     C    0.79106   0.20894   0.00000   1.000
    C46     C    0.25287   0.04030   0.00000   1.000
    C47     C    0.65563   0.65563   0.09354   1.000
    C48     C    0.72880   0.69430   0.66640   1.000
    C49     C    0.78450   0.69150   0.56020   1.000
    C50     C    0.21210   0.21210   0.67500   1.000
    C51     C    0.32726   0.32726   0.00000   1.000
    C52     C    0.25170   0.34470   0.43980   1.000
    C53     C    0.25287   0.95970   0.00000   1.000
    C54     C    0.60480   0.69430   0.66640   1.000
    C55     C    0.39520   0.36070   0.33360   1.000
    C56     C    0.34470   0.30850   0.43980   1.000
    C57     C    0.94150   0.84430   0.21420   1.000
    C58     C    0.84430   0.94150   0.21420   1.000
    C59     C    0.79106   0.79106   0.00000   1.000
    C60     C    0.65563   0.25083   0.09354   1.000
    C61     C    0.74830   0.65530   0.56020   1.000
    C62     C    0.84430   0.84430   0.21420   1.000
    C63     C    0.60480   0.63930   0.66640   1.000
    C64     C    0.05850   0.15570   0.78580   1.000
    C65     C    0.25170   0.21550   0.43980   1.000
    C66     C    0.27120   0.30570   0.33360   1.000
    C67     C    0.21210   0.11290   0.67500   1.000
    C68     C    0.71450   0.19224   0.09326   1.000
    C69     C    0.83005   0.06584   0.00000   1.000
    C70     C    0.19224   0.19224   0.09326   1.000
    C71     C    0.78790   0.88710   0.32500   1.000
    C72     C    0.78450   0.74830   0.56020   1.000
    C73     C    0.32726   0.67274   0.00000   1.000
    C74     C    0.11290   0.11290   0.67500   1.000
    C75     C    0.25083   0.65563   0.09354   1.000
    C76     C    0.30570   0.27120   0.33360   1.000
    C77     C    0.15570   0.05850   0.78580   1.000
    C78     C    0.16995   0.06584   0.00000   1.000
    C79     C    0.85436   0.85436   0.00000   1.000
    C80     C    0.88710   0.88710   0.32500   1.000
    C81     C    0.04030   0.74713   0.00000   1.000
    C82     C    0.04030   0.25287   0.00000   1.000
    C83     C    0.25083   0.25083   0.09354   1.000
    C84     C    0.30850   0.34470   0.43980   1.000
    C85     C    0.80776   0.28550   0.90674   1.000
    C86     C    0.20894   0.79106   0.00000   1.000
    C87     C    0.65530   0.69150   0.56020   1.000
    C88     C    0.34437   0.74917   0.90646   1.000
    C89     C    0.67274   0.32726   0.00000   1.000
    C90     C    0.71450   0.71450   0.09326   1.000
    C91     C    0.74930   0.74930   0.50140   1.000
    C92     C    0.95970   0.74713   0.00000   1.000
    C93     C    0.74917   0.34437   0.90646   1.000
    C94     C    0.69430   0.60480   0.66640   1.000
    C95     C    0.14564   0.14564   0.00000   1.000
    C96     C    0.34437   0.34437   0.90646   1.000
    C97     C    0.36070   0.39520   0.33360   1.000
    C98     C    0.95970   0.25287   0.00000   1.000
    C99     C    0.27120   0.36070   0.33360   1.000
    C100    C    0.72880   0.63930   0.66640   1.000
    N1      N    0.07979   0.07979   0.84042   1.000
    N2      N    0.92021   0.92021   0.15958   1.000
    N3      N    0.00000   0.88045   0.00000   1.000
    N4      N    0.36160   0.36160   0.27680   1.000
    N5      N    0.63840   0.63840   0.72320   1.000
    N6      N    0.00000   0.11955   0.00000   1.000
    N7      N    0.11955   0.00000   0.00000   1.000
    N8      N    0.88045   0.00000   0.00000   1.000
    O1      O    0.54028   0.54028   0.08792   1.000
    O2      O    0.37180   0.37180   0.08792   1.000
    O3      O    0.62820   0.45972   0.91208   1.000
    O4      O    0.45972   0.45972   0.91208   1.000
    O5      O    0.45972   0.62820   0.91208   1.000
    O6      O    0.37180   0.54028   0.08792   1.000
    O7      O    0.62820   0.62820   0.91208   1.000
    O8      O    0.54028   0.37180   0.08792   1.000
