# CIF file generated by openbabel 2.4.1, see http://openbabel.sf.net
data_I
_chemical_name_common 'image0'
_cell_length_a 13.967
_cell_length_b 15.48
_cell_length_c 20.893
_cell_angle_alpha 89.948
_cell_angle_beta 83.096
_cell_angle_gamma 89.209
_space_group_name_H-M_alt 'P 1'
_space_group_name_Hall 'P 1'
loop_
    _symmetry_equiv_pos_as_xyz
    x,y,z
loop_
    _atom_site_label
    _atom_site_type_symbol
    _atom_site_fract_x
    _atom_site_fract_y
    _atom_site_fract_z
    _atom_site_occupancy
    C1      C    0.79170   0.23910   0.52680   1.000
    C2      C    0.85650   0.16940   0.53280   1.000
    H1      H    0.90040   0.15200   0.49670   1.000
    C3      C    0.85650   0.12670   0.59030   1.000
    H2      H    0.90420   0.08330   0.59430   1.000
    C4      C    0.78860   0.14500   0.64300   1.000
    C5      C    0.71980   0.21000   0.63950   1.000
    H3      H    0.67280   0.22310   0.67500   1.000
    C6      C    0.72250   0.25630   0.58010   1.000
    H4      H    0.67570   0.30050   0.57650   1.000
    C7      C    0.79100   0.08890   0.70460   1.000
    C8      C    0.84890   0.01720   0.70620   1.000
    H5      H    0.88790   0.99850   0.66830   1.000
    C9      C    0.85070   0.97230   0.76260   1.000
    H6      H    0.89090   0.92250   0.76370   1.000
    C10     C    0.79450   0.99920   0.81730   1.000
    C11     C    0.73660   0.07100   0.81570   1.000
    C12     C    0.73480   0.11580   0.75930   1.000
    H7      H    0.69450   0.16570   0.75820   1.000
    C13     C    0.79970   0.22930   0.40610   1.000
    C14     C    0.86940   0.24030   0.35420   1.000
    H8      H    0.91850   0.28170   0.35630   1.000
    C15     C    0.86790   0.19110   0.29940   1.000
    H9      H    0.91590   0.19870   0.26360   1.000
    C16     C    0.79670   0.13090   0.29640   1.000
    C17     C    0.72690   0.11990   0.34830   1.000
    H10     H    0.67790   0.07850   0.34620   1.000
    C18     C    0.72850   0.16920   0.40310   1.000
    H11     H    0.68040   0.16160   0.43880   1.000
    C19     C    0.78860   0.07790   0.23590   1.000
    C20     C    0.87390   0.05070   0.20050   1.000
    H12     H    0.93410   0.06410   0.21470   1.000
    C21     C    0.87090   0.00430   0.14510   1.000
    H13     H    0.93010   0.98800   0.12060   1.000
    C22     C    0.78600   0.98000   0.12330   1.000
    C23     C    0.70210   0.00830   0.15910   1.000
    C24     C    0.70140   0.05760   0.21510   1.000
    H14     H    0.64230   0.07660   0.23850   1.000
    C25     C    0.79060   0.42350   0.40220   1.000
    C26     C    0.85670   0.48760   0.38700   1.000
    H15     H    0.90120   0.50170   0.41630   1.000
    C27     C    0.85850   0.53120   0.32960   1.000
    H16     H    0.90420   0.57540   0.31910   1.000
    C28     C    0.79420   0.51070   0.28730   1.000
    C29     C    0.72810   0.44670   0.30240   1.000
    H17     H    0.68360   0.43250   0.27310   1.000
    C30     C    0.72630   0.40310   0.35980   1.000
    H18     H    0.68060   0.35880   0.37030   1.000
    C31     C    0.79770   0.55760   0.22400   1.000
    C32     C    0.88590   0.57750   0.18780   1.000
    H19     H    0.94480   0.55970   0.20240   1.000
    C33     C    0.88680   0.62290   0.13130   1.000
    C34     C    0.80110   0.64890   0.10720   1.000
    C35     C    0.71780   0.62540   0.14140   1.000
    H20     H    0.65890   0.64040   0.12540   1.000
    C36     C    0.71380   0.58040   0.19890   1.000
    H21     H    0.65310   0.56520   0.22130   1.000
    C37     C    0.81210   0.42910   0.52180   1.000
    C38     C    0.74660   0.49460   0.53620   1.000
    H22     H    0.69930   0.50680   0.50820   1.000
    C39     C    0.74930   0.54270   0.59070   1.000
    H23     H    0.70370   0.58830   0.60070   1.000
    C40     C    0.81730   0.52520   0.63080   1.000
    C41     C    0.88270   0.45960   0.61650   1.000
    H24     H    0.93000   0.44740   0.64440   1.000
    C42     C    0.88010   0.41160   0.56200   1.000
    H25     H    0.92560   0.36590   0.55200   1.000
    C43     C    0.81690   0.57530   0.69230   1.000
    C44     C    0.73270   0.60050   0.73090   1.000
    H26     H    0.67190   0.58400   0.71910   1.000
    C45     C    0.73650   0.64900   0.78590   1.000
    H27     H    0.67780   0.66630   0.81050   1.000
    C46     C    0.82220   0.67330   0.80640   1.000
    C47     C    0.90640   0.64450   0.77070   1.000
    C48     C    0.90470   0.59680   0.71520   1.000
    H28     H    0.96390   0.57810   0.69180   1.000
    C49     C    0.79160   0.28640   0.46680   1.000
    C50     C    0.79620   0.37240   0.46370   1.000
    C51     C    0.79720   0.94870   0.88120   1.000
    C52     C    0.78940   0.92870   0.06230   1.000
    C53     C    0.80120   0.70670   0.04890   1.000
    C54     C    0.82010   0.72570   0.86640   1.000
    C55     C    0.11030   0.79090   0.91260   1.000
    H29     H    0.08310   0.76390   0.87830   1.000
    C56     C    0.20970   0.78380   0.91420   1.000
    H30     H    0.24860   0.74970   0.88320   1.000
    C57     C    0.25090   0.82780   0.96220   1.000
    C58     C    0.18860   0.87390   0.00700   1.000
    H31     H    0.21310   0.90350   0.04120   1.000
    C59     C    0.09100   0.87650   0.00180   1.000
    H32     H    0.04970   0.91040   0.03160   1.000
    C60     C    0.50960   0.75490   0.94420   1.000
    H33     H    0.54740   0.70740   0.92630   1.000
    C61     C    0.41300   0.75660   0.94060   1.000
    H34     H    0.38450   0.70970   0.92090   1.000
    C62     C    0.35610   0.82460   0.96500   1.000
    C63     C    0.39990   0.88920   0.99620   1.000
    H35     H    0.36330   0.93720   0.01440   1.000
    C64     C    0.49840   0.88290   0.00070   1.000
    H36     H    0.52740   0.92540   0.02460   1.000
    F1      F    0.61530   0.99380   0.13965   1.000
    F2      F    0.97500   0.65380   0.10490   1.000
    F3      F    0.99260   0.65960   0.78810   1.000
    N1      N    0.05280   0.83320   0.95639   1.000
    N2      N    0.55290   0.81990   0.97278   1.000
    O1      O    0.87870   0.92440   0.89249   1.000
    O2      O    0.71960   0.92960   0.91147   1.000
    O3      O    0.86890   0.91600   0.03133   1.000
    O4      O    0.71000   0.90130   0.04735   1.000
    O5      O    0.88100   0.73640   0.02385   1.000
    O6      O    0.72180   0.72170   0.03062   1.000
    O7      O    0.89830   0.74500   0.88614   1.000
    O8      O    0.73920   0.74950   0.89322   1.000
    Zn1     Zn   0.90769   0.83162   0.95736   1.000
    Zn2     Zn   0.69778   0.82237   0.97173   1.000
    F4      F    0.62230   0.03900   0.84720   1.000
    C65     C    0.78240   0.23390   0.53190   1.000
    C66     C    0.86750   0.22390   0.55820   1.000
    H37     H    0.92530   0.24740   0.53700   1.000
    C67     C    0.86910   0.17980   0.61530   1.000
    H38     H    0.92790   0.17290   0.63340   1.000
    C68     C    0.78540   0.14570   0.64600   1.000
    C69     C    0.70030   0.15570   0.61980   1.000
    H39     H    0.64250   0.13220   0.64100   1.000
    C70     C    0.69870   0.19980   0.56270   1.000
    H40     H    0.63990   0.20670   0.54450   1.000
    C71     C    0.78640   0.10190   0.70930   1.000
    C72     C    0.87310   0.06290   0.72300   1.000
    H41     H    0.93000   0.06840   0.69350   1.000
    C73     C    0.87570   0.01570   0.78040   1.000
    H42     H    0.93440   0.98940   0.78960   1.000
    C74     C    0.79150   0.00760   0.82410   1.000
    C75     C    0.70480   0.04660   0.81040   1.000
    C76     C    0.70220   0.09370   0.75300   1.000
    H43     H    0.64350   0.12010   0.74380   1.000
    C77     C    0.77300   0.23040   0.40940   1.000
    C78     C    0.82970   0.15450   0.40220   1.000
    H44     H    0.86780   0.13770   0.43490   1.000
    C79     C    0.83000   0.10360   0.34660   1.000
    H45     H    0.86830   0.05230   0.34170   1.000
    C80     C    0.77370   0.12850   0.29810   1.000
    C81     C    0.71700   0.20430   0.30530   1.000
    H46     H    0.67890   0.22110   0.27260   1.000
    C82     C    0.71670   0.25530   0.36100   1.000
    H47     H    0.67830   0.30660   0.36580   1.000
    C83     C    0.79600   0.41930   0.40410   1.000
    C84     C    0.84660   0.38430   0.34680   1.000
    H48     H    0.88030   0.33080   0.34810   1.000
    C85     C    0.84670   0.42930   0.28760   1.000
    H49     H    0.88050   0.40590   0.24920   1.000
    C86     C    0.79630   0.50930   0.28570   1.000
    C87     C    0.74570   0.54430   0.34300   1.000
    H50     H    0.71200   0.59790   0.34180   1.000
    C88     C    0.74560   0.49930   0.40220   1.000
    H51     H    0.71170   0.52270   0.44060   1.000
    C89     C    0.79840   0.42120   0.52410   1.000
    C90     C    0.72930   0.41240   0.58090   1.000
    H52     H    0.67840   0.37220   0.58120   1.000
    C91     C    0.73750   0.46470   0.63710   1.000
    H53     H    0.69200   0.45890   0.67440   1.000
    C92     C    0.81470   0.52580   0.63660   1.000
    C93     C    0.88380   0.53460   0.57980   1.000
    H54     H    0.93470   0.57480   0.57940   1.000
    C94     C    0.87570   0.48230   0.52360   1.000
    H55     H    0.92110   0.48810   0.48620   1.000
    F5      F    0.96970   0.62280   0.09320   1.000
    F6      F    0.67810   0.09530   0.86640   1.000
    C95     C    0.20830   0.76090   0.47320   1.000
    C96     C    0.14350   0.83060   0.46720   1.000
    H56     H    0.09960   0.84800   0.50330   1.000
    C97     C    0.14350   0.87330   0.40970   1.000
    H57     H    0.09580   0.91670   0.40570   1.000
    C98     C    0.21140   0.85500   0.35700   1.000
    C99     C    0.28020   0.79000   0.36050   1.000
    H58     H    0.32720   0.77690   0.32500   1.000
    C100    C    0.27750   0.74370   0.41990   1.000
    H59     H    0.32430   0.69950   0.42350   1.000
    C101    C    0.20900   0.91110   0.29540   1.000
    C102    C    0.15110   0.98280   0.29380   1.000
    H60     H    0.11210   0.00150   0.33170   1.000
    C103    C    0.14930   0.02770   0.23740   1.000
    H61     H    0.10910   0.07750   0.23630   1.000
    C104    C    0.20550   0.00080   0.18270   1.000
    C105    C    0.26340   0.92900   0.18430   1.000
    C106    C    0.26520   0.88420   0.24070   1.000
    H62     H    0.30550   0.83430   0.24180   1.000
    C107    C    0.20030   0.77070   0.59390   1.000
    C108    C    0.13060   0.75970   0.64580   1.000
    H63     H    0.08150   0.71830   0.64370   1.000
    C109    C    0.13210   0.80890   0.70060   1.000
    H64     H    0.08410   0.80130   0.73640   1.000
    C110    C    0.20330   0.86910   0.70360   1.000
    C111    C    0.27310   0.88010   0.65170   1.000
    H65     H    0.32210   0.92150   0.65380   1.000
    C112    C    0.27150   0.83080   0.59690   1.000
    H66     H    0.31960   0.83840   0.56120   1.000
    C113    C    0.21140   0.92210   0.76410   1.000
    C114    C    0.12610   0.94930   0.79950   1.000
    H67     H    0.06590   0.93590   0.78530   1.000
    C115    C    0.12910   0.99570   0.85490   1.000
    H68     H    0.06990   0.01200   0.87940   1.000
    C116    C    0.21400   0.02000   0.87670   1.000
    C117    C    0.29790   0.99170   0.84090   1.000
    C118    C    0.29860   0.94240   0.78490   1.000
    H69     H    0.35770   0.92340   0.76150   1.000
    C119    C    0.20940   0.57650   0.59780   1.000
    C120    C    0.14330   0.51240   0.61300   1.000
    H70     H    0.09880   0.49830   0.58370   1.000
    C121    C    0.14150   0.46880   0.67040   1.000
    H71     H    0.09580   0.42460   0.68090   1.000
    C122    C    0.20580   0.48930   0.71270   1.000
    C123    C    0.27190   0.55330   0.69760   1.000
    H72     H    0.31640   0.56750   0.72690   1.000
    C124    C    0.27370   0.59690   0.64020   1.000
    H73     H    0.31940   0.64120   0.62970   1.000
    C125    C    0.20230   0.44240   0.77600   1.000
    C126    C    0.11410   0.42250   0.81220   1.000
    H74     H    0.05520   0.44030   0.79760   1.000
    C127    C    0.11320   0.37710   0.86870   1.000
    C128    C    0.19890   0.35110   0.89280   1.000
    C129    C    0.28220   0.37460   0.85860   1.000
    H75     H    0.34110   0.35960   0.87460   1.000
    C130    C    0.28620   0.41960   0.80110   1.000
    H76     H    0.34690   0.43480   0.77870   1.000
    C131    C    0.18790   0.57090   0.47820   1.000
    C132    C    0.25340   0.50540   0.46380   1.000
    H77     H    0.30070   0.49320   0.49180   1.000
    C133    C    0.25070   0.45730   0.40930   1.000
    H78     H    0.29630   0.41170   0.39930   1.000
    C134    C    0.18270   0.47480   0.36920   1.000
    C135    C    0.11730   0.54040   0.38350   1.000
    H79     H    0.07000   0.55260   0.35560   1.000
    C136    C    0.11990   0.58840   0.43800   1.000
    H80     H    0.07440   0.63410   0.44800   1.000
    C137    C    0.18310   0.42470   0.30770   1.000
    C138    C    0.26730   0.39950   0.26910   1.000
    H81     H    0.32810   0.41600   0.28090   1.000
    C139    C    0.26350   0.35100   0.21410   1.000
    H82     H    0.32220   0.33370   0.18950   1.000
    C140    C    0.17780   0.32670   0.19360   1.000
    C141    C    0.09360   0.35550   0.22930   1.000
    C142    C    0.09530   0.40320   0.28480   1.000
    H83     H    0.03610   0.42190   0.30820   1.000
    C143    C    0.20840   0.71360   0.53320   1.000
    C144    C    0.20380   0.62760   0.53630   1.000
    C145    C    0.20280   0.05130   0.11880   1.000
    C146    C    0.21060   0.07130   0.93770   1.000
    C147    C    0.19880   0.29330   0.95110   1.000
    C148    C    0.17990   0.27430   0.13360   1.000
    C149    C    0.88970   0.20910   0.08740   1.000
    H84     H    0.91690   0.23610   0.12170   1.000
    C150    C    0.79030   0.21620   0.08580   1.000
    H85     H    0.75140   0.25030   0.11680   1.000
    C151    C    0.74910   0.17220   0.03780   1.000
    C152    C    0.81140   0.12610   0.99300   1.000
    H86     H    0.78690   0.09650   0.95880   1.000
    C153    C    0.90900   0.12350   0.99820   1.000
    H87     H    0.95030   0.08960   0.96840   1.000
    C154    C    0.49040   0.24510   0.05580   1.000
    H88     H    0.45260   0.29260   0.07370   1.000
    C155    C    0.58700   0.24340   0.05940   1.000
    H89     H    0.61550   0.29030   0.07910   1.000
    C156    C    0.64390   0.17540   0.03500   1.000
    C157    C    0.60010   0.11080   0.00380   1.000
    H90     H    0.63670   0.06280   0.98560   1.000
    C158    C    0.50160   0.11710   0.99930   1.000
    H91     H    0.47260   0.07460   0.97540   1.000
    F7      F    0.38470   0.00620   0.86035   1.000
    F8      F    0.02500   0.34620   0.89510   1.000
    F9      F    0.00740   0.34040   0.21190   1.000
    N3      N    0.94720   0.16680   0.04361   1.000
    N4      N    0.44710   0.18010   0.02722   1.000
    O9      O    0.12130   0.07560   0.10751   1.000
    O10     O    0.28040   0.07040   0.08853   1.000
    O11     O    0.13110   0.08400   0.96867   1.000
    O12     O    0.29000   0.09870   0.95265   1.000
    O13     O    0.11900   0.26360   0.97615   1.000
    O14     O    0.27820   0.27830   0.96938   1.000
    O15     O    0.10170   0.25500   0.11386   1.000
    O16     O    0.26080   0.25050   0.10678   1.000
    Zn3     Zn   0.09231   0.16838   0.04264   1.000
    Zn4     Zn   0.30222   0.17763   0.02827   1.000
    F10     F    0.37770   0.96100   0.15280   1.000
    C159    C    0.21760   0.76610   0.46810   1.000
    C160    C    0.13250   0.77610   0.44180   1.000
    H92     H    0.07470   0.75260   0.46300   1.000
    C161    C    0.13090   0.82020   0.38470   1.000
    H93     H    0.07210   0.82710   0.36660   1.000
    C162    C    0.21460   0.85430   0.35400   1.000
    C163    C    0.29970   0.84430   0.38020   1.000
    H94     H    0.35750   0.86780   0.35900   1.000
    C164    C    0.30130   0.80020   0.43730   1.000
    H95     H    0.36010   0.79330   0.45550   1.000
    C165    C    0.21360   0.89810   0.29070   1.000
    C166    C    0.12690   0.93710   0.27700   1.000
    H96     H    0.07000   0.93160   0.30650   1.000
    C167    C    0.12430   0.98430   0.21960   1.000
    H97     H    0.06560   0.01060   0.21040   1.000
    C168    C    0.20850   0.99240   0.17590   1.000
    C169    C    0.29520   0.95340   0.18960   1.000
    C170    C    0.29780   0.90630   0.24700   1.000
    H98     H    0.35650   0.87990   0.25620   1.000
    C171    C    0.22700   0.76960   0.59060   1.000
    C172    C    0.17030   0.84550   0.59780   1.000
    H99     H    0.13220   0.86230   0.56510   1.000
    C173    C    0.17000   0.89640   0.65340   1.000
    H100    H    0.13170   0.94770   0.65830   1.000
    C174    C    0.22630   0.87150   0.70190   1.000
    C175    C    0.28300   0.79570   0.69470   1.000
    H101    H    0.32110   0.77890   0.72740   1.000
    C176    C    0.28330   0.74470   0.63900   1.000
    H102    H    0.32170   0.69340   0.63420   1.000
    C177    C    0.20400   0.58070   0.59590   1.000
    C178    C    0.15340   0.61570   0.65320   1.000
    H103    H    0.11970   0.66920   0.65190   1.000
    C179    C    0.15330   0.57070   0.71240   1.000
    H104    H    0.11950   0.59410   0.75080   1.000
    C180    C    0.20370   0.49070   0.71430   1.000
    C181    C    0.25430   0.45570   0.65700   1.000
    H105    H    0.28800   0.40210   0.65820   1.000
    C182    C    0.25440   0.50070   0.59780   1.000
    H106    H    0.28830   0.47730   0.55940   1.000
    C183    C    0.20160   0.57880   0.47590   1.000
    C184    C    0.27070   0.58760   0.41910   1.000
    H107    H    0.32160   0.62780   0.41880   1.000
    C185    C    0.26250   0.53530   0.36290   1.000
    H108    H    0.30800   0.54110   0.32560   1.000
    C186    C    0.18530   0.47420   0.36340   1.000
    C187    C    0.11620   0.46540   0.42020   1.000
    H109    H    0.06530   0.42520   0.42060   1.000
    C188    C    0.12430   0.51770   0.47640   1.000
    H110    H    0.07890   0.51190   0.51380   1.000
    F11     F    0.03030   0.37720   0.90680   1.000
    F12     F    0.32190   0.90470   0.13360   1.000
