data_functionalizedCrystal
_audit_creation_method	'EQeq! by Chris Wilmer'
_symmetry_space_group_name_H-M	'P1'
_symmetry_Int_Tables_number	1
_symmetry_cell_setting	triclinic
loop_
_symmetry_equiv_pos_as_xyz
  x,y,z
_cell_length_a	39.931
_cell_length_b	39.931
_cell_length_c	39.931
_cell_angle_alpha	90
_cell_angle_beta	90
_cell_angle_gamma	90
loop_
_atom_site_label
_atom_site_type_symbol
_atom_site_fract_x
_atom_site_fract_y
_atom_site_fract_z
_atom_site_charge
Mof_O 	O 	0.87889	0.17075	0.46453	-0.484
Mof_O 	O 	0.83934	0.20972	0.46478	-0.479
Mof_C 	C 	0.86558	0.19718	0.45357	0.418
Mof_C 	C 	0.88285	0.21431	0.42544	-0.136
Mof_C 	C 	0.8677	0.2414	0.4084	0.002
Mof_H 	H 	0.8478	0.2507	0.4176	0.027
Mof_C 	C 	0.7758	0.248	0.47008	-0.029
Mof_H 	H 	0.7734	0.2337	0.4499	0.019
Mof_H 	H 	0.7982	0.2585	0.4696	0.03
Mof_H 	H 	0.8014	0.265	0.48	0.011
Mof_C 	C 	0.7503	0.1237	0.5806	0.022
Mof_H 	H 	0.7381	0.1391	0.5674	0.02
Mof_O 	O 	0.87889	0.67075	0.96453	-0.477
Mof_O 	O 	0.83934	0.70972	0.96478	-0.473
Mof_C 	C 	0.86558	0.69718	0.95357	0.417
Mof_C 	C 	0.88285	0.71431	0.92544	-0.133
Mof_C 	C 	0.8677	0.7414	0.9084	0
Mof_H 	H 	0.8478	0.7507	0.9176	0.026
Mof_C 	C 	0.7758	0.748	0.97008	-0.083
Mof_H 	H 	0.7734	0.7337	0.9499	0.03
Mof_H 	H 	0.7982	0.7585	0.9696	0.136
Mof_H 	H 	0.8014	0.765	0.98	-0.1
Mof_C 	C 	0.7503	0.6237	0.0806	0.023
Mof_H 	H 	0.7381	0.6391	0.0674	0.019
Mof_O 	O 	0.37889	0.17075	0.96453	-0.479
Mof_O 	O 	0.33934	0.20972	0.96478	-0.474
Mof_C 	C 	0.36558	0.19718	0.95357	0.417
Mof_C 	C 	0.38285	0.21431	0.92544	-0.135
Mof_C 	C 	0.3677	0.2414	0.9084	0.002
Mof_H 	H 	0.3478	0.2507	0.9176	0.026
Mof_C 	C 	0.2758	0.248	0.97008	-0.082
Mof_H 	H 	0.2734	0.2337	0.9499	0.031
Mof_H 	H 	0.2982	0.2585	0.9696	0.134
Mof_H 	H 	0.3014	0.265	0.98	-0.098
Mof_C 	C 	0.2503	0.1237	0.0806	0.023
Mof_H 	H 	0.2381	0.1391	0.0674	0.019
Mof_O 	O 	0.37889	0.67075	0.46453	-0.485
Mof_O 	O 	0.33934	0.70972	0.46478	-0.479
Mof_C 	C 	0.36558	0.69718	0.45357	0.418
Mof_C 	C 	0.38285	0.71431	0.42544	-0.137
Mof_C 	C 	0.3677	0.7414	0.4084	0.003
Mof_H 	H 	0.3478	0.7507	0.4176	0.026
Mof_C 	C 	0.2758	0.748	0.47008	-0.028
Mof_H 	H 	0.2734	0.7337	0.4499	0.019
Mof_H 	H 	0.2982	0.7585	0.4696	0.03
Mof_H 	H 	0.3014	0.765	0.48	0.011
Mof_C 	C 	0.2503	0.6237	0.5806	0.023
Mof_H 	H 	0.2381	0.6391	0.5674	0.02
Mof_O 	O 	0.12111	0.82925	0.46453	-0.486
Mof_O 	O 	0.16066	0.79028	0.46478	-0.479
Mof_C 	C 	0.13442	0.80282	0.45357	0.418
Mof_C 	C 	0.11715	0.78569	0.42544	-0.138
Mof_C 	C 	0.1323	0.7586	0.4084	0.004
Mof_H 	H 	0.1522	0.7493	0.4176	0.026
Mof_C 	C 	0.2242	0.752	0.47008	-0.028
Mof_H 	H 	0.2266	0.7663	0.4499	0.022
Mof_H 	H 	0.2018	0.7415	0.4696	0.028
Mof_H 	H 	0.1986	0.735	0.48	0.013
Mof_C 	C 	0.2497	0.8763	0.5806	0.025
Mof_H 	H 	0.2619	0.8609	0.5674	0.02
Mof_O 	O 	0.12111	0.32925	0.96453	-0.48
Mof_O 	O 	0.16066	0.29028	0.96478	-0.474
Mof_C 	C 	0.13442	0.30282	0.95357	0.418
Mof_C 	C 	0.11715	0.28569	0.92544	-0.136
Mof_C 	C 	0.1323	0.2586	0.9084	0.003
Mof_H 	H 	0.1522	0.2493	0.9176	0.025
Mof_C 	C 	0.2242	0.252	0.97008	-0.081
Mof_H 	H 	0.2266	0.2663	0.9499	0.033
Mof_H 	H 	0.2018	0.2415	0.9696	0.132
Mof_H 	H 	0.1986	0.235	0.98	-0.096
Mof_C 	C 	0.2497	0.3763	0.0806	0.023
Mof_H 	H 	0.2619	0.3609	0.0674	0.019
Mof_O 	O 	0.62111	0.82925	0.96453	-0.478
Mof_O 	O 	0.66066	0.79028	0.96478	-0.474
Mof_C 	C 	0.63442	0.80282	0.95357	0.417
Mof_C 	C 	0.61715	0.78569	0.92544	-0.135
Mof_C 	C 	0.6323	0.7586	0.9084	0.002
Mof_H 	H 	0.6522	0.7493	0.9176	0.026
Mof_C 	C 	0.7242	0.752	0.97008	-0.082
Mof_H 	H 	0.7266	0.7663	0.9499	0.033
Mof_H 	H 	0.7018	0.7415	0.9696	0.133
Mof_H 	H 	0.6986	0.735	0.98	-0.097
Mof_C 	C 	0.7497	0.8763	0.0806	0.025
Mof_H 	H 	0.7619	0.8609	0.0674	0.02
Mof_O 	O 	0.62111	0.32925	0.46453	-0.485
Mof_O 	O 	0.66066	0.29028	0.46478	-0.479
Mof_C 	C 	0.63442	0.30282	0.45357	0.418
Mof_C 	C 	0.61715	0.28569	0.42544	-0.137
Mof_C 	C 	0.6323	0.2586	0.4084	0.004
Mof_H 	H 	0.6522	0.2493	0.4176	0.026
Mof_C 	C 	0.7242	0.252	0.47008	-0.028
Mof_H 	H 	0.7266	0.2663	0.4499	0.021
Mof_H 	H 	0.7018	0.2415	0.4696	0.028
Mof_H 	H 	0.6986	0.235	0.48	0.013
Mof_C 	C 	0.7497	0.3763	0.5806	0.023
Mof_H 	H 	0.7619	0.3609	0.5674	0.02
Mof_O 	O 	0.12111	0.17075	0.53547	-0.487
Mof_O 	O 	0.16066	0.20972	0.53522	-0.479
Mof_C 	C 	0.13442	0.19718	0.54643	0.419
Mof_C 	C 	0.11715	0.21431	0.57456	-0.139
Mof_C 	C 	0.1323	0.2414	0.5916	0.005
Mof_H 	H 	0.1522	0.2507	0.5824	0.026
Mof_C 	C 	0.2242	0.248	0.52992	-0.028
Mof_H 	H 	0.2266	0.2337	0.5501	0.02
Mof_H 	H 	0.2018	0.2585	0.5304	0.028
Mof_H 	H 	0.1986	0.265	0.52	0.013
Mof_C 	C 	0.2497	0.1237	0.4194	0.023
Mof_H 	H 	0.2619	0.1391	0.4326	0.02
Mof_O 	O 	0.12111	0.67075	0.03547	-0.491
Mof_O 	O 	0.16066	0.70972	0.03522	-0.484
Mof_C 	C 	0.13442	0.69718	0.04643	0.42
Mof_C 	C 	0.11715	0.71431	0.07456	-0.141
Mof_C 	C 	0.1323	0.7414	0.0916	0.005
Mof_H 	H 	0.1522	0.7507	0.0824	0.024
Mof_C 	C 	0.2242	0.748	0.02992	-0.101
Mof_H 	H 	0.2266	0.7337	0.0501	0.034
Mof_H 	H 	0.2018	0.7585	0.0304	0.172
Mof_H 	H 	0.1986	0.765	0.02	-0.142
Mof_C 	C 	0.2497	0.6237	0.9194	0.024
Mof_H 	H 	0.2619	0.6391	0.9326	0.023
Mof_O 	O 	0.62111	0.17075	0.03547	-0.491
Mof_O 	O 	0.66066	0.20972	0.03522	-0.485
Mof_C 	C 	0.63442	0.19718	0.04643	0.418
Mof_C 	C 	0.61715	0.21431	0.07456	-0.141
Mof_C 	C 	0.6323	0.2414	0.0916	0.003
Mof_H 	H 	0.6522	0.2507	0.0824	0.023
Mof_C 	C 	0.7242	0.248	0.02992	-0.102
Mof_H 	H 	0.7266	0.2337	0.0501	0.034
Mof_H 	H 	0.7018	0.2585	0.0304	0.171
Mof_H 	H 	0.6986	0.265	0.02	-0.143
Mof_C 	C 	0.7497	0.1237	0.9194	0.023
Mof_H 	H 	0.7619	0.1391	0.9326	0.022
Mof_O 	O 	0.62111	0.67075	0.53547	-0.486
Mof_O 	O 	0.66066	0.70972	0.53522	-0.48
Mof_C 	C 	0.63442	0.69718	0.54643	0.417
Mof_C 	C 	0.61715	0.71431	0.57456	-0.138
Mof_C 	C 	0.6323	0.7414	0.5916	0.002
Mof_H 	H 	0.6522	0.7507	0.5824	0.025
Mof_C 	C 	0.7242	0.748	0.52992	-0.03
Mof_H 	H 	0.7266	0.7337	0.5501	0.019
Mof_H 	H 	0.7018	0.7585	0.5304	0.029
Mof_H 	H 	0.6986	0.765	0.52	0.011
Mof_C 	C 	0.7497	0.6237	0.4194	0.022
Mof_H 	H 	0.7619	0.6391	0.4326	0.019
Mof_O 	O 	0.87889	0.82925	0.53547	-0.485
Mof_O 	O 	0.83934	0.79028	0.53522	-0.48
Mof_C 	C 	0.86558	0.80282	0.54643	0.417
Mof_C 	C 	0.88285	0.78569	0.57456	-0.136
Mof_C 	C 	0.8677	0.7586	0.5916	0.001
Mof_H 	H 	0.8478	0.7493	0.5824	0.026
Mof_C 	C 	0.7758	0.752	0.52992	-0.03
Mof_H 	H 	0.7734	0.7663	0.5501	0.019
Mof_H 	H 	0.7982	0.7415	0.5304	0.029
Mof_H 	H 	0.8014	0.735	0.52	0.011
Mof_C 	C 	0.7503	0.8763	0.4194	0.023
Mof_H 	H 	0.7381	0.8609	0.4326	0.019
Mof_O 	O 	0.87889	0.32925	0.03547	-0.489
Mof_O 	O 	0.83934	0.29028	0.03522	-0.485
Mof_C 	C 	0.86558	0.30282	0.04643	0.418
Mof_C 	C 	0.88285	0.28569	0.07456	-0.139
Mof_C 	C 	0.8677	0.2586	0.0916	0.002
Mof_H 	H 	0.8478	0.2493	0.0824	0.024
Mof_C 	C 	0.7758	0.252	0.02992	-0.102
Mof_H 	H 	0.7734	0.2663	0.0501	0.033
Mof_H 	H 	0.7982	0.2415	0.0304	0.171
Mof_H 	H 	0.8014	0.235	0.02	-0.143
Mof_C 	C 	0.7503	0.3763	0.9194	0.023
Mof_H 	H 	0.7381	0.3609	0.9326	0.022
Mof_O 	O 	0.37889	0.82925	0.03547	-0.49
Mof_O 	O 	0.33934	0.79028	0.03522	-0.485
Mof_C 	C 	0.36558	0.80282	0.04643	0.418
Mof_C 	C 	0.38285	0.78569	0.07456	-0.14
Mof_C 	C 	0.3677	0.7586	0.0916	0.003
Mof_H 	H 	0.3478	0.7493	0.0824	0.023
Mof_C 	C 	0.2758	0.752	0.02992	-0.102
Mof_H 	H 	0.2734	0.7663	0.0501	0.034
Mof_H 	H 	0.2982	0.7415	0.0304	0.171
Mof_H 	H 	0.3014	0.735	0.02	-0.142
Mof_C 	C 	0.2503	0.8763	0.9194	0.024
Mof_H 	H 	0.2381	0.8609	0.9326	0.022
Mof_O 	O 	0.37889	0.32925	0.53547	-0.486
Mof_O 	O 	0.33934	0.29028	0.53522	-0.48
Mof_C 	C 	0.36558	0.30282	0.54643	0.417
Mof_C 	C 	0.38285	0.28569	0.57456	-0.138
Mof_C 	C 	0.3677	0.2586	0.5916	0.003
Mof_H 	H 	0.3478	0.2493	0.5824	0.025
Mof_C 	C 	0.2758	0.252	0.52992	-0.029
Mof_H 	H 	0.2734	0.2663	0.5501	0.019
Mof_H 	H 	0.2982	0.2415	0.5304	0.027
Mof_H 	H 	0.3014	0.235	0.52	0.012
Mof_C 	C 	0.2503	0.3763	0.4194	0.022
Mof_H 	H 	0.2381	0.3609	0.4326	0.019
Mof_O 	O 	0.46453	0.87889	0.17075	-0.485
Mof_O 	O 	0.46478	0.83934	0.20972	-0.48
Mof_C 	C 	0.45357	0.86558	0.19718	0.417
Mof_C 	C 	0.42544	0.88285	0.21431	-0.137
Mof_C 	C 	0.4084	0.8677	0.2414	0.001
Mof_H 	H 	0.4176	0.8478	0.2507	0.026
Mof_C 	C 	0.47008	0.7758	0.248	-0.03
Mof_H 	H 	0.4499	0.7734	0.2337	0.018
Mof_H 	H 	0.4696	0.7982	0.2585	0.029
Mof_H 	H 	0.48	0.8014	0.265	0.01
Mof_C 	C 	0.5806	0.7503	0.1237	0.021
Mof_H 	H 	0.5674	0.7381	0.1391	0.019
Mof_O 	O 	0.46453	0.37889	0.67075	-0.486
Mof_O 	O 	0.46478	0.33934	0.70972	-0.48
Mof_C 	C 	0.45357	0.36558	0.69718	0.417
Mof_C 	C 	0.42544	0.38285	0.71431	-0.138
Mof_C 	C 	0.4084	0.3677	0.7414	0.002
Mof_H 	H 	0.4176	0.3478	0.7507	0.025
Mof_C 	C 	0.47008	0.2758	0.748	-0.029
Mof_H 	H 	0.4499	0.2734	0.7337	0.018
Mof_H 	H 	0.4696	0.2982	0.7585	0.029
Mof_H 	H 	0.48	0.3014	0.765	0.01
Mof_C 	C 	0.5806	0.2503	0.6237	0.022
Mof_H 	H 	0.5674	0.2381	0.6391	0.019
Mof_O 	O 	0.96453	0.87889	0.67075	-0.478
Mof_O 	O 	0.96478	0.83934	0.70972	-0.474
Mof_C 	C 	0.95357	0.86558	0.69718	0.416
Mof_C 	C 	0.92544	0.88285	0.71431	-0.134
Mof_C 	C 	0.9084	0.8677	0.7414	-0.001
Mof_H 	H 	0.9176	0.8478	0.7507	0.025
Mof_C 	C 	0.97008	0.7758	0.748	-0.084
Mof_H 	H 	0.9499	0.7734	0.7337	0.029
Mof_H 	H 	0.9696	0.7982	0.7585	0.135
Mof_H 	H 	0.98	0.8014	0.765	-0.101
Mof_C 	C 	0.0806	0.7503	0.6237	0.022
Mof_H 	H 	0.0674	0.7381	0.6391	0.018
Mof_O 	O 	0.96453	0.37889	0.17075	-0.48
Mof_O 	O 	0.96478	0.33934	0.20972	-0.475
Mof_C 	C 	0.95357	0.36558	0.19718	0.416
Mof_C 	C 	0.92544	0.38285	0.21431	-0.136
Mof_C 	C 	0.9084	0.3677	0.2414	0.001
Mof_H 	H 	0.9176	0.3478	0.2507	0.025
Mof_C 	C 	0.97008	0.2758	0.248	-0.083
Mof_H 	H 	0.9499	0.2734	0.2337	0.03
Mof_H 	H 	0.9696	0.2982	0.2585	0.133
Mof_H 	H 	0.98	0.3014	0.265	-0.099
Mof_C 	C 	0.0806	0.2503	0.1237	0.022
Mof_H 	H 	0.0674	0.2381	0.1391	0.018
Mof_O 	O 	0.46453	0.12111	0.82925	-0.487
Mof_O 	O 	0.46478	0.16066	0.79028	-0.48
Mof_C 	C 	0.45357	0.13442	0.80282	0.417
Mof_C 	C 	0.42544	0.11715	0.78569	-0.139
Mof_C 	C 	0.4084	0.1323	0.7586	0.003
Mof_H 	H 	0.4176	0.1522	0.7493	0.025
Mof_C 	C 	0.47008	0.2242	0.752	-0.029
Mof_H 	H 	0.4499	0.2266	0.7663	0.021
Mof_H 	H 	0.4696	0.2018	0.7415	0.027
Mof_H 	H 	0.48	0.1986	0.735	0.012
Mof_C 	C 	0.5806	0.2497	0.8763	0.024
Mof_H 	H 	0.5674	0.2619	0.8609	0.019
Mof_O 	O 	0.46453	0.62111	0.32925	-0.486
Mof_O 	O 	0.46478	0.66066	0.29028	-0.48
Mof_C 	C 	0.45357	0.63442	0.30282	0.417
Mof_C 	C 	0.42544	0.61715	0.28569	-0.138
Mof_C 	C 	0.4084	0.6323	0.2586	0.003
Mof_H 	H 	0.4176	0.6522	0.2493	0.025
Mof_C 	C 	0.47008	0.7242	0.252	-0.029
Mof_H 	H 	0.4499	0.7266	0.2663	0.02
Mof_H 	H 	0.4696	0.7018	0.2415	0.027
Mof_H 	H 	0.48	0.6986	0.235	0.012
Mof_C 	C 	0.5806	0.7497	0.3763	0.022
Mof_H 	H 	0.5674	0.7619	0.3609	0.019
Mof_O 	O 	0.96453	0.12111	0.32925	-0.481
Mof_O 	O 	0.96478	0.16066	0.29028	-0.475
Mof_C 	C 	0.95357	0.13442	0.30282	0.417
Mof_C 	C 	0.92544	0.11715	0.28569	-0.137
Mof_C 	C 	0.9084	0.1323	0.2586	0.002
Mof_H 	H 	0.9176	0.1522	0.2493	0.024
Mof_C 	C 	0.97008	0.2242	0.252	-0.082
Mof_H 	H 	0.9499	0.2266	0.2663	0.032
Mof_H 	H 	0.9696	0.2018	0.2415	0.131
Mof_H 	H 	0.98	0.1986	0.235	-0.097
Mof_C 	C 	0.0806	0.2497	0.3763	0.022
Mof_H 	H 	0.0674	0.2619	0.3609	0.018
Mof_O 	O 	0.96453	0.62111	0.82925	-0.479
Mof_O 	O 	0.96478	0.66066	0.79028	-0.475
Mof_C 	C 	0.95357	0.63442	0.80282	0.416
Mof_C 	C 	0.92544	0.61715	0.78569	-0.136
Mof_C 	C 	0.9084	0.6323	0.7586	0.001
Mof_H 	H 	0.9176	0.6522	0.7493	0.025
Mof_C 	C 	0.97008	0.7242	0.752	-0.083
Mof_H 	H 	0.9499	0.7266	0.7663	0.032
Mof_H 	H 	0.9696	0.7018	0.7415	0.132
Mof_H 	H 	0.98	0.6986	0.735	-0.098
Mof_C 	C 	0.0806	0.7497	0.8763	0.024
Mof_H 	H 	0.0674	0.7619	0.8609	0.019
Mof_O 	O 	0.53547	0.12111	0.17075	-0.488
Mof_O 	O 	0.53522	0.16066	0.20972	-0.48
Mof_C 	C 	0.54643	0.13442	0.19718	0.418
Mof_C 	C 	0.57456	0.11715	0.21431	-0.14
Mof_C 	C 	0.5916	0.1323	0.2414	0.004
Mof_H 	H 	0.5824	0.1522	0.2507	0.025
Mof_C 	C 	0.52992	0.2242	0.248	-0.029
Mof_H 	H 	0.5501	0.2266	0.2337	0.019
Mof_H 	H 	0.5304	0.2018	0.2585	0.027
Mof_H 	H 	0.52	0.1986	0.265	0.012
Mof_C 	C 	0.4194	0.2497	0.1237	0.022
Mof_H 	H 	0.4326	0.2619	0.1391	0.019
Mof_O 	O 	0.53547	0.62111	0.67075	-0.486
Mof_O 	O 	0.53522	0.66066	0.70972	-0.48
Mof_C 	C 	0.54643	0.63442	0.69718	0.417
Mof_C 	C 	0.57456	0.61715	0.71431	-0.138
Mof_C 	C 	0.5916	0.6323	0.7414	0.002
Mof_H 	H 	0.5824	0.6522	0.7507	0.025
Mof_C 	C 	0.52992	0.7242	0.748	-0.03
Mof_H 	H 	0.5501	0.7266	0.7337	0.019
Mof_H 	H 	0.5304	0.7018	0.7585	0.029
Mof_H 	H 	0.52	0.6986	0.765	0.011
Mof_C 	C 	0.4194	0.7497	0.6237	0.022
Mof_H 	H 	0.4326	0.7619	0.6391	0.019
Mof_O 	O 	0.03547	0.12111	0.67075	-0.492
Mof_O 	O 	0.03522	0.16066	0.70972	-0.485
Mof_C 	C 	0.04643	0.13442	0.69718	0.419
Mof_C 	C 	0.07456	0.11715	0.71431	-0.142
Mof_C 	C 	0.0916	0.1323	0.7414	0.004
Mof_H 	H 	0.0824	0.1522	0.7507	0.023
Mof_C 	C 	0.02992	0.2242	0.748	-0.102
Mof_H 	H 	0.0501	0.2266	0.7337	0.033
Mof_H 	H 	0.0304	0.2018	0.7585	0.171
Mof_H 	H 	0.02	0.1986	0.765	-0.143
Mof_C 	C 	0.9194	0.2497	0.6237	0.023
Mof_H 	H 	0.9326	0.2619	0.6391	0.022
Mof_O 	O 	0.03547	0.62111	0.17075	-0.491
Mof_O 	O 	0.03522	0.66066	0.20972	-0.485
Mof_C 	C 	0.04643	0.63442	0.19718	0.418
Mof_C 	C 	0.07456	0.61715	0.21431	-0.141
Mof_C 	C 	0.0916	0.6323	0.2414	0.003
Mof_H 	H 	0.0824	0.6522	0.2507	0.023
Mof_C 	C 	0.02992	0.7242	0.248	-0.102
Mof_H 	H 	0.0501	0.7266	0.2337	0.034
Mof_H 	H 	0.0304	0.7018	0.2585	0.171
Mof_H 	H 	0.02	0.6986	0.265	-0.143
Mof_C 	C 	0.9194	0.7497	0.1237	0.023
Mof_H 	H 	0.9326	0.7619	0.1391	0.022
Mof_O 	O 	0.53547	0.87889	0.82925	-0.485
Mof_O 	O 	0.53522	0.83934	0.79028	-0.48
Mof_C 	C 	0.54643	0.86558	0.80282	0.417
Mof_C 	C 	0.57456	0.88285	0.78569	-0.136
Mof_C 	C 	0.5916	0.8677	0.7586	0.001
Mof_H 	H 	0.5824	0.8478	0.7493	0.026
Mof_C 	C 	0.52992	0.7758	0.752	-0.03
Mof_H 	H 	0.5501	0.7734	0.7663	0.019
Mof_H 	H 	0.5304	0.7982	0.7415	0.029
Mof_H 	H 	0.52	0.8014	0.735	0.011
Mof_C 	C 	0.4194	0.7503	0.8763	0.023
Mof_H 	H 	0.4326	0.7381	0.8609	0.019
Mof_O 	O 	0.53547	0.37889	0.32925	-0.486
Mof_O 	O 	0.53522	0.33934	0.29028	-0.48
Mof_C 	C 	0.54643	0.36558	0.30282	0.417
Mof_C 	C 	0.57456	0.38285	0.28569	-0.138
Mof_C 	C 	0.5916	0.3677	0.2586	0.003
Mof_H 	H 	0.5824	0.3478	0.2493	0.025
Mof_C 	C 	0.52992	0.2758	0.252	-0.029
Mof_H 	H 	0.5501	0.2734	0.2663	0.019
Mof_H 	H 	0.5304	0.2982	0.2415	0.027
Mof_H 	H 	0.52	0.3014	0.235	0.012
Mof_C 	C 	0.4194	0.2503	0.3763	0.022
Mof_H 	H 	0.4326	0.2381	0.3609	0.019
Mof_O 	O 	0.03547	0.87889	0.32925	-0.489
Mof_O 	O 	0.03522	0.83934	0.29028	-0.485
Mof_C 	C 	0.04643	0.86558	0.30282	0.418
Mof_C 	C 	0.07456	0.88285	0.28569	-0.139
Mof_C 	C 	0.0916	0.8677	0.2586	0.002
Mof_H 	H 	0.0824	0.8478	0.2493	0.024
Mof_C 	C 	0.02992	0.7758	0.252	-0.102
Mof_H 	H 	0.0501	0.7734	0.2663	0.033
Mof_H 	H 	0.0304	0.7982	0.2415	0.171
Mof_H 	H 	0.02	0.8014	0.235	-0.143
Mof_C 	C 	0.9194	0.7503	0.3763	0.023
Mof_H 	H 	0.9326	0.7381	0.3609	0.022
Mof_O 	O 	0.03547	0.37889	0.82925	-0.49
Mof_O 	O 	0.03522	0.33934	0.79028	-0.485
Mof_C 	C 	0.04643	0.36558	0.80282	0.418
Mof_C 	C 	0.07456	0.38285	0.78569	-0.14
Mof_C 	C 	0.0916	0.3677	0.7586	0.003
Mof_H 	H 	0.0824	0.3478	0.7493	0.023
Mof_C 	C 	0.02992	0.2758	0.752	-0.102
Mof_H 	H 	0.0501	0.2734	0.7663	0.034
Mof_H 	H 	0.0304	0.2982	0.7415	0.171
Mof_H 	H 	0.02	0.3014	0.735	-0.142
Mof_C 	C 	0.9194	0.2503	0.8763	0.024
Mof_H 	H 	0.9326	0.2381	0.8609	0.022
Mof_O 	O 	0.17075	0.46453	0.87889	-0.485
Mof_O 	O 	0.20972	0.46478	0.83934	-0.48
Mof_C 	C 	0.19718	0.45357	0.86558	0.417
Mof_C 	C 	0.21431	0.42544	0.88285	-0.137
Mof_C 	C 	0.2414	0.4084	0.8677	0.001
Mof_H 	H 	0.2507	0.4176	0.8478	0.026
Mof_C 	C 	0.248	0.47008	0.7758	-0.03
Mof_H 	H 	0.2337	0.4499	0.7734	0.018
Mof_H 	H 	0.2585	0.4696	0.7982	0.029
Mof_H 	H 	0.265	0.48	0.8014	0.01
Mof_C 	C 	0.1237	0.5806	0.7503	0.021
Mof_H 	H 	0.1391	0.5674	0.7381	0.019
Mof_O 	O 	0.17075	0.96453	0.37889	-0.48
Mof_O 	O 	0.20972	0.96478	0.33934	-0.475
Mof_C 	C 	0.19718	0.95357	0.36558	0.416
Mof_C 	C 	0.21431	0.92544	0.38285	-0.136
Mof_C 	C 	0.2414	0.9084	0.3677	0.001
Mof_H 	H 	0.2507	0.9176	0.3478	0.025
Mof_C 	C 	0.248	0.97008	0.2758	-0.083
Mof_H 	H 	0.2337	0.9499	0.2734	0.03
Mof_H 	H 	0.2585	0.9696	0.2982	0.133
Mof_H 	H 	0.265	0.98	0.3014	-0.099
Mof_C 	C 	0.1237	0.0806	0.2503	0.022
Mof_H 	H 	0.1391	0.0674	0.2381	0.018
Mof_O 	O 	0.67075	0.46453	0.37889	-0.486
Mof_O 	O 	0.70972	0.46478	0.33934	-0.48
Mof_C 	C 	0.69718	0.45357	0.36558	0.417
Mof_C 	C 	0.71431	0.42544	0.38285	-0.138
Mof_C 	C 	0.7414	0.4084	0.3677	0.002
Mof_H 	H 	0.7507	0.4176	0.3478	0.025
Mof_C 	C 	0.748	0.47008	0.2758	-0.029
Mof_H 	H 	0.7337	0.4499	0.2734	0.018
Mof_H 	H 	0.7585	0.4696	0.2982	0.029
Mof_H 	H 	0.765	0.48	0.3014	0.01
Mof_C 	C 	0.6237	0.5806	0.2503	0.022
Mof_H 	H 	0.6391	0.5674	0.2381	0.019
Mof_O 	O 	0.67075	0.96453	0.87889	-0.478
Mof_O 	O 	0.70972	0.96478	0.83934	-0.474
Mof_C 	C 	0.69718	0.95357	0.86558	0.416
Mof_C 	C 	0.71431	0.92544	0.88285	-0.134
Mof_C 	C 	0.7414	0.9084	0.8677	-0.001
Mof_H 	H 	0.7507	0.9176	0.8478	0.025
Mof_C 	C 	0.748	0.97008	0.7758	-0.084
Mof_H 	H 	0.7337	0.9499	0.7734	0.029
Mof_H 	H 	0.7585	0.9696	0.7982	0.135
Mof_H 	H 	0.765	0.98	0.8014	-0.101
Mof_C 	C 	0.6237	0.0806	0.7503	0.022
Mof_H 	H 	0.6391	0.0674	0.7381	0.018
Mof_O 	O 	0.82925	0.46453	0.12111	-0.487
Mof_O 	O 	0.79028	0.46478	0.16066	-0.48
Mof_C 	C 	0.80282	0.45357	0.13442	0.417
Mof_C 	C 	0.78569	0.42544	0.11715	-0.139
Mof_C 	C 	0.7586	0.4084	0.1323	0.003
Mof_H 	H 	0.7493	0.4176	0.1522	0.025
Mof_C 	C 	0.752	0.47008	0.2242	-0.029
Mof_H 	H 	0.7663	0.4499	0.2266	0.021
Mof_H 	H 	0.7415	0.4696	0.2018	0.027
Mof_H 	H 	0.735	0.48	0.1986	0.012
Mof_C 	C 	0.8763	0.5806	0.2497	0.024
Mof_H 	H 	0.8609	0.5674	0.2619	0.019
Mof_O 	O 	0.82925	0.96453	0.62111	-0.479
Mof_O 	O 	0.79028	0.96478	0.66066	-0.475
Mof_C 	C 	0.80282	0.95357	0.63442	0.416
Mof_C 	C 	0.78569	0.92544	0.61715	-0.136
Mof_C 	C 	0.7586	0.9084	0.6323	0.001
Mof_H 	H 	0.7493	0.9176	0.6522	0.025
Mof_C 	C 	0.752	0.97008	0.7242	-0.083
Mof_H 	H 	0.7663	0.9499	0.7266	0.032
Mof_H 	H 	0.7415	0.9696	0.7018	0.132
Mof_H 	H 	0.735	0.98	0.6986	-0.098
Mof_C 	C 	0.8763	0.0806	0.7497	0.024
Mof_H 	H 	0.8609	0.0674	0.7619	0.019
Mof_O 	O 	0.32925	0.46453	0.62111	-0.486
Mof_O 	O 	0.29028	0.46478	0.66066	-0.48
Mof_C 	C 	0.30282	0.45357	0.63442	0.417
Mof_C 	C 	0.28569	0.42544	0.61715	-0.138
Mof_C 	C 	0.2586	0.4084	0.6323	0.003
Mof_H 	H 	0.2493	0.4176	0.6522	0.025
Mof_C 	C 	0.252	0.47008	0.7242	-0.029
Mof_H 	H 	0.2663	0.4499	0.7266	0.02
Mof_H 	H 	0.2415	0.4696	0.7018	0.027
Mof_H 	H 	0.235	0.48	0.6986	0.012
Mof_C 	C 	0.3763	0.5806	0.7497	0.022
Mof_H 	H 	0.3609	0.5674	0.7619	0.019
Mof_O 	O 	0.32925	0.96453	0.12111	-0.481
Mof_O 	O 	0.29028	0.96478	0.16066	-0.475
Mof_C 	C 	0.30282	0.95357	0.13442	0.417
Mof_C 	C 	0.28569	0.92544	0.11715	-0.137
Mof_C 	C 	0.2586	0.9084	0.1323	0.002
Mof_H 	H 	0.2493	0.9176	0.1522	0.024
Mof_C 	C 	0.252	0.97008	0.2242	-0.082
Mof_H 	H 	0.2663	0.9499	0.2266	0.032
Mof_H 	H 	0.2415	0.9696	0.2018	0.131
Mof_H 	H 	0.235	0.98	0.1986	-0.097
Mof_C 	C 	0.3763	0.0806	0.2497	0.022
Mof_H 	H 	0.3609	0.0674	0.2619	0.018
Mof_O 	O 	0.17075	0.53547	0.12111	-0.488
Mof_O 	O 	0.20972	0.53522	0.16066	-0.48
Mof_C 	C 	0.19718	0.54643	0.13442	0.418
Mof_C 	C 	0.21431	0.57456	0.11715	-0.14
Mof_C 	C 	0.2414	0.5916	0.1323	0.004
Mof_H 	H 	0.2507	0.5824	0.1522	0.025
Mof_C 	C 	0.248	0.52992	0.2242	-0.029
Mof_H 	H 	0.2337	0.5501	0.2266	0.019
Mof_H 	H 	0.2585	0.5304	0.2018	0.027
Mof_H 	H 	0.265	0.52	0.1986	0.012
Mof_C 	C 	0.1237	0.4194	0.2497	0.022
Mof_H 	H 	0.1391	0.4326	0.2619	0.019
Mof_O 	O 	0.17075	0.03547	0.62111	-0.491
Mof_O 	O 	0.20972	0.03522	0.66066	-0.485
Mof_C 	C 	0.19718	0.04643	0.63442	0.418
Mof_C 	C 	0.21431	0.07456	0.61715	-0.141
Mof_C 	C 	0.2414	0.0916	0.6323	0.003
Mof_H 	H 	0.2507	0.0824	0.6522	0.023
Mof_C 	C 	0.248	0.02992	0.7242	-0.102
Mof_H 	H 	0.2337	0.0501	0.7266	0.034
Mof_H 	H 	0.2585	0.0304	0.7018	0.171
Mof_H 	H 	0.265	0.02	0.6986	-0.143
Mof_C 	C 	0.1237	0.9194	0.7497	0.023
Mof_H 	H 	0.1391	0.9326	0.7619	0.022
Mof_O 	O 	0.67075	0.53547	0.62111	-0.486
Mof_O 	O 	0.70972	0.53522	0.66066	-0.48
Mof_C 	C 	0.69718	0.54643	0.63442	0.417
Mof_C 	C 	0.71431	0.57456	0.61715	-0.138
Mof_C 	C 	0.7414	0.5916	0.6323	0.002
Mof_H 	H 	0.7507	0.5824	0.6522	0.025
Mof_C 	C 	0.748	0.52992	0.7242	-0.03
Mof_H 	H 	0.7337	0.5501	0.7266	0.019
Mof_H 	H 	0.7585	0.5304	0.7018	0.029
Mof_H 	H 	0.765	0.52	0.6986	0.011
Mof_C 	C 	0.6237	0.4194	0.7497	0.022
Mof_H 	H 	0.6391	0.4326	0.7619	0.019
Mof_O 	O 	0.67075	0.03547	0.12111	-0.492
Mof_O 	O 	0.70972	0.03522	0.16066	-0.485
Mof_C 	C 	0.69718	0.04643	0.13442	0.419
Mof_C 	C 	0.71431	0.07456	0.11715	-0.142
Mof_C 	C 	0.7414	0.0916	0.1323	0.004
Mof_H 	H 	0.7507	0.0824	0.1522	0.023
Mof_C 	C 	0.748	0.02992	0.2242	-0.102
Mof_H 	H 	0.7337	0.0501	0.2266	0.033
Mof_H 	H 	0.7585	0.0304	0.2018	0.171
Mof_H 	H 	0.765	0.02	0.1986	-0.143
Mof_C 	C 	0.6237	0.9194	0.2497	0.023
Mof_H 	H 	0.6391	0.9326	0.2619	0.022
Mof_O 	O 	0.82925	0.53547	0.87889	-0.485
Mof_O 	O 	0.79028	0.53522	0.83934	-0.48
Mof_C 	C 	0.80282	0.54643	0.86558	0.417
Mof_C 	C 	0.78569	0.57456	0.88285	-0.136
Mof_C 	C 	0.7586	0.5916	0.8677	0.001
Mof_H 	H 	0.7493	0.5824	0.8478	0.026
Mof_C 	C 	0.752	0.52992	0.7758	-0.03
Mof_H 	H 	0.7663	0.5501	0.7734	0.019
Mof_H 	H 	0.7415	0.5304	0.7982	0.029
Mof_H 	H 	0.735	0.52	0.8014	0.011
Mof_C 	C 	0.8763	0.4194	0.7503	0.023
Mof_H 	H 	0.8609	0.4326	0.7381	0.019
Mof_O 	O 	0.82925	0.03547	0.37889	-0.49
Mof_O 	O 	0.79028	0.03522	0.33934	-0.485
Mof_C 	C 	0.80282	0.04643	0.36558	0.418
Mof_C 	C 	0.78569	0.07456	0.38285	-0.14
Mof_C 	C 	0.7586	0.0916	0.3677	0.003
Mof_H 	H 	0.7493	0.0824	0.3478	0.023
Mof_C 	C 	0.752	0.02992	0.2758	-0.102
Mof_H 	H 	0.7663	0.0501	0.2734	0.034
Mof_H 	H 	0.7415	0.0304	0.2982	0.171
Mof_H 	H 	0.735	0.02	0.3014	-0.142
Mof_C 	C 	0.8763	0.9194	0.2503	0.024
Mof_H 	H 	0.8609	0.9326	0.2381	0.022
Mof_O 	O 	0.32925	0.53547	0.37889	-0.486
Mof_O 	O 	0.29028	0.53522	0.33934	-0.48
Mof_C 	C 	0.30282	0.54643	0.36558	0.417
Mof_C 	C 	0.28569	0.57456	0.38285	-0.138
Mof_C 	C 	0.2586	0.5916	0.3677	0.003
Mof_H 	H 	0.2493	0.5824	0.3478	0.025
Mof_C 	C 	0.252	0.52992	0.2758	-0.029
Mof_H 	H 	0.2663	0.5501	0.2734	0.019
Mof_H 	H 	0.2415	0.5304	0.2982	0.027
Mof_H 	H 	0.235	0.52	0.3014	0.012
Mof_C 	C 	0.3763	0.4194	0.2503	0.022
Mof_H 	H 	0.3609	0.4326	0.2381	0.019
Mof_O 	O 	0.32925	0.03547	0.87889	-0.489
Mof_O 	O 	0.29028	0.03522	0.83934	-0.485
Mof_C 	C 	0.30282	0.04643	0.86558	0.418
Mof_C 	C 	0.28569	0.07456	0.88285	-0.139
Mof_C 	C 	0.2586	0.0916	0.8677	0.002
Mof_H 	H 	0.2493	0.0824	0.8478	0.024
Mof_C 	C 	0.252	0.02992	0.7758	-0.102
Mof_H 	H 	0.2663	0.0501	0.7734	0.033
Mof_H 	H 	0.2415	0.0304	0.7982	0.171
Mof_H 	H 	0.235	0.02	0.8014	-0.143
Mof_C 	C 	0.3763	0.9194	0.7503	0.023
Mof_H 	H 	0.3609	0.9326	0.7381	0.022
Mof_O 	O 	0.17075	0.87889	0.53547	-0.485
Mof_O 	O 	0.20972	0.83934	0.53522	-0.48
Mof_C 	C 	0.19718	0.86558	0.54643	0.417
Mof_C 	C 	0.21431	0.88285	0.57456	-0.137
Mof_C 	C 	0.2414	0.8677	0.5916	0.001
Mof_H 	H 	0.2507	0.8478	0.5824	0.026
Mof_C 	C 	0.248	0.7758	0.52992	-0.03
Mof_H 	H 	0.2337	0.7734	0.5501	0.018
Mof_H 	H 	0.2585	0.7982	0.5304	0.029
Mof_H 	H 	0.265	0.8014	0.52	0.01
Mof_C 	C 	0.1237	0.7503	0.4194	0.021
Mof_H 	H 	0.1391	0.7381	0.4326	0.019
Mof_O 	O 	0.17075	0.37889	0.03547	-0.491
Mof_O 	O 	0.20972	0.33934	0.03522	-0.485
Mof_C 	C 	0.19718	0.36558	0.04643	0.418
Mof_C 	C 	0.21431	0.38285	0.07456	-0.141
Mof_C 	C 	0.2414	0.3677	0.0916	0.003
Mof_H 	H 	0.2507	0.3478	0.0824	0.023
Mof_C 	C 	0.248	0.2758	0.02992	-0.102
Mof_H 	H 	0.2337	0.2734	0.0501	0.032
Mof_H 	H 	0.2585	0.2982	0.0304	0.171
Mof_H 	H 	0.265	0.3014	0.02	-0.143
Mof_C 	C 	0.1237	0.2503	0.9194	0.022
Mof_H 	H 	0.1391	0.2381	0.9326	0.021
Mof_O 	O 	0.67075	0.87889	0.03547	-0.489
Mof_O 	O 	0.70972	0.83934	0.03522	-0.485
Mof_C 	C 	0.69718	0.86558	0.04643	0.418
Mof_C 	C 	0.71431	0.88285	0.07456	-0.139
Mof_C 	C 	0.7414	0.8677	0.0916	0.001
Mof_H 	H 	0.7507	0.8478	0.0824	0.024
Mof_C 	C 	0.748	0.7758	0.02992	-0.103
Mof_H 	H 	0.7337	0.7734	0.0501	0.032
Mof_H 	H 	0.7585	0.7982	0.0304	0.173
Mof_H 	H 	0.765	0.8014	0.02	-0.145
Mof_C 	C 	0.6237	0.7503	0.9194	0.023
Mof_H 	H 	0.6391	0.7381	0.9326	0.022
Mof_O 	O 	0.67075	0.37889	0.53547	-0.486
Mof_O 	O 	0.70972	0.33934	0.53522	-0.48
Mof_C 	C 	0.69718	0.36558	0.54643	0.417
Mof_C 	C 	0.71431	0.38285	0.57456	-0.138
Mof_C 	C 	0.7414	0.3677	0.5916	0.002
Mof_H 	H 	0.7507	0.3478	0.5824	0.025
Mof_C 	C 	0.748	0.2758	0.52992	-0.029
Mof_H 	H 	0.7337	0.2734	0.5501	0.018
Mof_H 	H 	0.7585	0.2982	0.5304	0.029
Mof_H 	H 	0.765	0.3014	0.52	0.01
Mof_C 	C 	0.6237	0.2503	0.4194	0.022
Mof_H 	H 	0.6391	0.2381	0.4326	0.019
Mof_O 	O 	0.82925	0.12111	0.53547	-0.487
Mof_O 	O 	0.79028	0.16066	0.53522	-0.48
Mof_C 	C 	0.80282	0.13442	0.54643	0.417
Mof_C 	C 	0.78569	0.11715	0.57456	-0.139
Mof_C 	C 	0.7586	0.1323	0.5916	0.003
Mof_H 	H 	0.7493	0.1522	0.5824	0.025
Mof_C 	C 	0.752	0.2242	0.52992	-0.029
Mof_H 	H 	0.7663	0.2266	0.5501	0.021
Mof_H 	H 	0.7415	0.2018	0.5304	0.027
Mof_H 	H 	0.735	0.1986	0.52	0.012
Mof_C 	C 	0.8763	0.2497	0.4194	0.024
Mof_H 	H 	0.8609	0.2619	0.4326	0.019
Mof_O 	O 	0.82925	0.62111	0.03547	-0.49
Mof_O 	O 	0.79028	0.66066	0.03522	-0.485
Mof_C 	C 	0.80282	0.63442	0.04643	0.418
Mof_C 	C 	0.78569	0.61715	0.07456	-0.14
Mof_C 	C 	0.7586	0.6323	0.0916	0.003
Mof_H 	H 	0.7493	0.6522	0.0824	0.023
Mof_C 	C 	0.752	0.7242	0.02992	-0.102
Mof_H 	H 	0.7663	0.7266	0.0501	0.035
Mof_H 	H 	0.7415	0.7018	0.0304	0.171
Mof_H 	H 	0.735	0.6986	0.02	-0.142
Mof_C 	C 	0.8763	0.7497	0.9194	0.025
Mof_H 	H 	0.8609	0.7619	0.9326	0.022
Mof_O 	O 	0.32925	0.12111	0.03547	-0.492
Mof_O 	O 	0.29028	0.16066	0.03522	-0.485
Mof_C 	C 	0.30282	0.13442	0.04643	0.419
Mof_C 	C 	0.28569	0.11715	0.07456	-0.142
Mof_C 	C 	0.2586	0.1323	0.0916	0.005
Mof_H 	H 	0.2493	0.1522	0.0824	0.023
Mof_C 	C 	0.252	0.2242	0.02992	-0.101
Mof_H 	H 	0.2663	0.2266	0.0501	0.034
Mof_H 	H 	0.2415	0.2018	0.0304	0.169
Mof_H 	H 	0.235	0.1986	0.02	-0.141
Mof_C 	C 	0.3763	0.2497	0.9194	0.023
Mof_H 	H 	0.3609	0.2619	0.9326	0.022
Mof_O 	O 	0.32925	0.62111	0.53547	-0.486
Mof_O 	O 	0.29028	0.66066	0.53522	-0.48
Mof_C 	C 	0.30282	0.63442	0.54643	0.417
Mof_C 	C 	0.28569	0.61715	0.57456	-0.138
Mof_C 	C 	0.2586	0.6323	0.5916	0.003
Mof_H 	H 	0.2493	0.6522	0.5824	0.025
Mof_C 	C 	0.252	0.7242	0.52992	-0.029
Mof_H 	H 	0.2663	0.7266	0.5501	0.02
Mof_H 	H 	0.2415	0.7018	0.5304	0.027
Mof_H 	H 	0.235	0.6986	0.52	0.012
Mof_C 	C 	0.3763	0.7497	0.4194	0.022
Mof_H 	H 	0.3609	0.7619	0.4326	0.019
Mof_O 	O 	0.17075	0.12111	0.46453	-0.488
Mof_O 	O 	0.20972	0.16066	0.46478	-0.48
Mof_C 	C 	0.19718	0.13442	0.45357	0.418
Mof_C 	C 	0.21431	0.11715	0.42544	-0.139
Mof_C 	C 	0.2414	0.1323	0.4084	0.004
Mof_H 	H 	0.2507	0.1522	0.4176	0.025
Mof_C 	C 	0.248	0.2242	0.47008	-0.029
Mof_H 	H 	0.2337	0.2266	0.4499	0.019
Mof_H 	H 	0.2585	0.2018	0.4696	0.027
Mof_H 	H 	0.265	0.1986	0.48	0.012
Mof_C 	C 	0.1237	0.2497	0.5806	0.022
Mof_H 	H 	0.1391	0.2619	0.5674	0.019
Mof_O 	O 	0.17075	0.62111	0.96453	-0.48
Mof_O 	O 	0.20972	0.66066	0.96478	-0.475
Mof_C 	C 	0.19718	0.63442	0.95357	0.416
Mof_C 	C 	0.21431	0.61715	0.92544	-0.136
Mof_C 	C 	0.2414	0.6323	0.9084	0.001
Mof_H 	H 	0.2507	0.6522	0.9176	0.025
Mof_C 	C 	0.248	0.7242	0.97008	-0.083
Mof_H 	H 	0.2337	0.7266	0.9499	0.031
Mof_H 	H 	0.2585	0.7018	0.9696	0.132
Mof_H 	H 	0.265	0.6986	0.98	-0.098
Mof_C 	C 	0.1237	0.7497	0.0806	0.022
Mof_H 	H 	0.1391	0.7619	0.0674	0.018
Mof_O 	O 	0.67075	0.12111	0.96453	-0.481
Mof_O 	O 	0.70972	0.16066	0.96478	-0.475
Mof_C 	C 	0.69718	0.13442	0.95357	0.417
Mof_C 	C 	0.71431	0.11715	0.92544	-0.137
Mof_C 	C 	0.7414	0.1323	0.9084	0.002
Mof_H 	H 	0.7507	0.1522	0.9176	0.024
Mof_C 	C 	0.748	0.2242	0.97008	-0.083
Mof_H 	H 	0.7337	0.2266	0.9499	0.031
Mof_H 	H 	0.7585	0.2018	0.9696	0.133
Mof_H 	H 	0.765	0.1986	0.98	-0.099
Mof_C 	C 	0.6237	0.2497	0.0806	0.022
Mof_H 	H 	0.6391	0.2619	0.0674	0.018
Mof_O 	O 	0.67075	0.62111	0.46453	-0.486
Mof_O 	O 	0.70972	0.66066	0.46478	-0.48
Mof_C 	C 	0.69718	0.63442	0.45357	0.417
Mof_C 	C 	0.71431	0.61715	0.42544	-0.138
Mof_C 	C 	0.7414	0.6323	0.4084	0.002
Mof_H 	H 	0.7507	0.6522	0.4176	0.025
Mof_C 	C 	0.748	0.7242	0.47008	-0.03
Mof_H 	H 	0.7337	0.7266	0.4499	0.019
Mof_H 	H 	0.7585	0.7018	0.4696	0.029
Mof_H 	H 	0.765	0.6986	0.48	0.011
Mof_C 	C 	0.6237	0.7497	0.5806	0.022
Mof_H 	H 	0.6391	0.7619	0.5674	0.019
Mof_O 	O 	0.82925	0.87889	0.46453	-0.484
Mof_O 	O 	0.79028	0.83934	0.46478	-0.479
Mof_C 	C 	0.80282	0.86558	0.45357	0.417
Mof_C 	C 	0.78569	0.88285	0.42544	-0.136
Mof_C 	C 	0.7586	0.8677	0.4084	0.001
Mof_H 	H 	0.7493	0.8478	0.4176	0.026
Mof_C 	C 	0.752	0.7758	0.47008	-0.03
Mof_H 	H 	0.7663	0.7734	0.4499	0.019
Mof_H 	H 	0.7415	0.7982	0.4696	0.029
Mof_H 	H 	0.735	0.8014	0.48	0.011
Mof_C 	C 	0.8763	0.7503	0.5806	0.023
Mof_H 	H 	0.8609	0.7381	0.5674	0.019
Mof_O 	O 	0.82925	0.37889	0.96453	-0.479
Mof_O 	O 	0.79028	0.33934	0.96478	-0.475
Mof_C 	C 	0.80282	0.36558	0.95357	0.416
Mof_C 	C 	0.78569	0.38285	0.92544	-0.135
Mof_C 	C 	0.7586	0.3677	0.9084	0.001
Mof_H 	H 	0.7493	0.3478	0.9176	0.025
Mof_C 	C 	0.752	0.2758	0.97008	-0.083
Mof_H 	H 	0.7663	0.2734	0.9499	0.031
Mof_H 	H 	0.7415	0.2982	0.9696	0.132
Mof_H 	H 	0.735	0.3014	0.98	-0.098
Mof_C 	C 	0.8763	0.2503	0.0806	0.024
Mof_H 	H 	0.8609	0.2381	0.0674	0.018
Mof_O 	O 	0.32925	0.87889	0.96453	-0.478
Mof_O 	O 	0.29028	0.83934	0.96478	-0.474
Mof_C 	C 	0.30282	0.86558	0.95357	0.416
Mof_C 	C 	0.28569	0.88285	0.92544	-0.134
Mof_C 	C 	0.2586	0.8677	0.9084	-0
Mof_H 	H 	0.2493	0.8478	0.9176	0.025
Mof_C 	C 	0.252	0.7758	0.97008	-0.083
Mof_H 	H 	0.2663	0.7734	0.9499	0.03
Mof_H 	H 	0.2415	0.7982	0.9696	0.133
Mof_H 	H 	0.235	0.8014	0.98	-0.099
Mof_C 	C 	0.3763	0.7503	0.0806	0.022
Mof_H 	H 	0.3609	0.7381	0.0674	0.018
Mof_O 	O 	0.32925	0.37889	0.46453	-0.486
Mof_O 	O 	0.29028	0.33934	0.46478	-0.48
Mof_C 	C 	0.30282	0.36558	0.45357	0.417
Mof_C 	C 	0.28569	0.38285	0.42544	-0.138
Mof_C 	C 	0.2586	0.3677	0.4084	0.003
Mof_H 	H 	0.2493	0.3478	0.4176	0.025
Mof_C 	C 	0.252	0.2758	0.47008	-0.029
Mof_H 	H 	0.2663	0.2734	0.4499	0.019
Mof_H 	H 	0.2415	0.2982	0.4696	0.027
Mof_H 	H 	0.235	0.3014	0.48	0.012
Mof_C 	C 	0.3763	0.2503	0.5806	0.022
Mof_H 	H 	0.3609	0.2381	0.5674	0.019
Mof_O 	O 	0.87889	0.46453	0.82925	-0.484
Mof_O 	O 	0.83934	0.46478	0.79028	-0.479
Mof_C 	C 	0.86558	0.45357	0.80282	0.417
Mof_C 	C 	0.88285	0.42544	0.78569	-0.136
Mof_C 	C 	0.8677	0.4084	0.7586	0.001
Mof_H 	H 	0.8478	0.4176	0.7493	0.026
Mof_C 	C 	0.7758	0.47008	0.752	-0.03
Mof_H 	H 	0.7734	0.4499	0.7663	0.019
Mof_H 	H 	0.7982	0.4696	0.7415	0.029
Mof_H 	H 	0.8014	0.48	0.735	0.011
Mof_C 	C 	0.7503	0.5806	0.8763	0.023
Mof_H 	H 	0.7381	0.5674	0.8609	0.019
Mof_O 	O 	0.87889	0.96453	0.32925	-0.478
Mof_O 	O 	0.83934	0.96478	0.29028	-0.474
Mof_C 	C 	0.86558	0.95357	0.30282	0.416
Mof_C 	C 	0.88285	0.92544	0.28569	-0.134
Mof_C 	C 	0.8677	0.9084	0.2586	-0
Mof_H 	H 	0.8478	0.9176	0.2493	0.025
Mof_C 	C 	0.7758	0.97008	0.252	-0.083
Mof_H 	H 	0.7734	0.9499	0.2663	0.03
Mof_H 	H 	0.7982	0.9696	0.2415	0.133
Mof_H 	H 	0.8014	0.98	0.235	-0.099
Mof_C 	C 	0.7503	0.0806	0.3763	0.022
Mof_H 	H 	0.7381	0.0674	0.3609	0.018
Mof_O 	O 	0.37889	0.46453	0.32925	-0.486
Mof_O 	O 	0.33934	0.46478	0.29028	-0.48
Mof_C 	C 	0.36558	0.45357	0.30282	0.417
Mof_C 	C 	0.38285	0.42544	0.28569	-0.138
Mof_C 	C 	0.3677	0.4084	0.2586	0.003
Mof_H 	H 	0.3478	0.4176	0.2493	0.025
Mof_C 	C 	0.2758	0.47008	0.252	-0.029
Mof_H 	H 	0.2734	0.4499	0.2663	0.019
Mof_H 	H 	0.2982	0.4696	0.2415	0.027
Mof_H 	H 	0.3014	0.48	0.235	0.012
Mof_C 	C 	0.2503	0.5806	0.3763	0.022
Mof_H 	H 	0.2381	0.5674	0.3609	0.019
Mof_O 	O 	0.37889	0.96453	0.82925	-0.479
Mof_O 	O 	0.33934	0.96478	0.79028	-0.475
Mof_C 	C 	0.36558	0.95357	0.80282	0.416
Mof_C 	C 	0.38285	0.92544	0.78569	-0.135
Mof_C 	C 	0.3677	0.9084	0.7586	0.001
Mof_H 	H 	0.3478	0.9176	0.7493	0.025
Mof_C 	C 	0.2758	0.97008	0.752	-0.083
Mof_H 	H 	0.2734	0.9499	0.7663	0.031
Mof_H 	H 	0.2982	0.9696	0.7415	0.132
Mof_H 	H 	0.3014	0.98	0.735	-0.098
Mof_C 	C 	0.2503	0.0806	0.8763	0.024
Mof_H 	H 	0.2381	0.0674	0.8609	0.018
Mof_O 	O 	0.12111	0.46453	0.17075	-0.488
Mof_O 	O 	0.16066	0.46478	0.20972	-0.48
Mof_C 	C 	0.13442	0.45357	0.19718	0.418
Mof_C 	C 	0.11715	0.42544	0.21431	-0.139
Mof_C 	C 	0.1323	0.4084	0.2414	0.004
Mof_H 	H 	0.1522	0.4176	0.2507	0.025
Mof_C 	C 	0.2242	0.47008	0.248	-0.029
Mof_H 	H 	0.2266	0.4499	0.2337	0.019
Mof_H 	H 	0.2018	0.4696	0.2585	0.027
Mof_H 	H 	0.1986	0.48	0.265	0.012
Mof_C 	C 	0.2497	0.5806	0.1237	0.022
Mof_H 	H 	0.2619	0.5674	0.1391	0.019
Mof_O 	O 	0.12111	0.96453	0.67075	-0.481
Mof_O 	O 	0.16066	0.96478	0.70972	-0.475
Mof_C 	C 	0.13442	0.95357	0.69718	0.417
Mof_C 	C 	0.11715	0.92544	0.71431	-0.137
Mof_C 	C 	0.1323	0.9084	0.7414	0.002
Mof_H 	H 	0.1522	0.9176	0.7507	0.024
Mof_C 	C 	0.2242	0.97008	0.748	-0.083
Mof_H 	H 	0.2266	0.9499	0.7337	0.031
Mof_H 	H 	0.2018	0.9696	0.7585	0.133
Mof_H 	H 	0.1986	0.98	0.765	-0.099
Mof_C 	C 	0.2497	0.0806	0.6237	0.022
Mof_H 	H 	0.2619	0.0674	0.6391	0.018
Mof_O 	O 	0.62111	0.46453	0.67075	-0.486
Mof_O 	O 	0.66066	0.46478	0.70972	-0.48
Mof_C 	C 	0.63442	0.45357	0.69718	0.417
Mof_C 	C 	0.61715	0.42544	0.71431	-0.138
Mof_C 	C 	0.6323	0.4084	0.7414	0.002
Mof_H 	H 	0.6522	0.4176	0.7507	0.025
Mof_C 	C 	0.7242	0.47008	0.748	-0.03
Mof_H 	H 	0.7266	0.4499	0.7337	0.019
Mof_H 	H 	0.7018	0.4696	0.7585	0.029
Mof_H 	H 	0.6986	0.48	0.765	0.011
Mof_C 	C 	0.7497	0.5806	0.6237	0.022
Mof_H 	H 	0.7619	0.5674	0.6391	0.019
Mof_O 	O 	0.62111	0.96453	0.17075	-0.48
Mof_O 	O 	0.66066	0.96478	0.20972	-0.475
Mof_C 	C 	0.63442	0.95357	0.19718	0.416
Mof_C 	C 	0.61715	0.92544	0.21431	-0.136
Mof_C 	C 	0.6323	0.9084	0.2414	0.001
Mof_H 	H 	0.6522	0.9176	0.2507	0.025
Mof_C 	C 	0.7242	0.97008	0.248	-0.083
Mof_H 	H 	0.7266	0.9499	0.2337	0.031
Mof_H 	H 	0.7018	0.9696	0.2585	0.132
Mof_H 	H 	0.6986	0.98	0.265	-0.098
Mof_C 	C 	0.7497	0.0806	0.1237	0.022
Mof_H 	H 	0.7619	0.0674	0.1391	0.018
Mof_O 	O 	0.12111	0.53547	0.82925	-0.487
Mof_O 	O 	0.16066	0.53522	0.79028	-0.48
Mof_C 	C 	0.13442	0.54643	0.80282	0.417
Mof_C 	C 	0.11715	0.57456	0.78569	-0.139
Mof_C 	C 	0.1323	0.5916	0.7586	0.003
Mof_H 	H 	0.1522	0.5824	0.7493	0.025
Mof_C 	C 	0.2242	0.52992	0.752	-0.029
Mof_H 	H 	0.2266	0.5501	0.7663	0.021
Mof_H 	H 	0.2018	0.5304	0.7415	0.027
Mof_H 	H 	0.1986	0.52	0.735	0.012
Mof_C 	C 	0.2497	0.4194	0.8763	0.024
Mof_H 	H 	0.2619	0.4326	0.8609	0.019
Mof_O 	O 	0.12111	0.03547	0.32925	-0.492
Mof_O 	O 	0.16066	0.03522	0.29028	-0.485
Mof_C 	C 	0.13442	0.04643	0.30282	0.419
Mof_C 	C 	0.11715	0.07456	0.28569	-0.142
Mof_C 	C 	0.1323	0.0916	0.2586	0.005
Mof_H 	H 	0.1522	0.0824	0.2493	0.023
Mof_C 	C 	0.2242	0.02992	0.252	-0.101
Mof_H 	H 	0.2266	0.0501	0.2663	0.034
Mof_H 	H 	0.2018	0.0304	0.2415	0.169
Mof_H 	H 	0.1986	0.02	0.235	-0.141
Mof_C 	C 	0.2497	0.9194	0.3763	0.023
Mof_H 	H 	0.2619	0.9326	0.3609	0.022
Mof_O 	O 	0.62111	0.53547	0.32925	-0.486
Mof_O 	O 	0.66066	0.53522	0.29028	-0.48
Mof_C 	C 	0.63442	0.54643	0.30282	0.417
Mof_C 	C 	0.61715	0.57456	0.28569	-0.138
Mof_C 	C 	0.6323	0.5916	0.2586	0.003
Mof_H 	H 	0.6522	0.5824	0.2493	0.025
Mof_C 	C 	0.7242	0.52992	0.252	-0.029
Mof_H 	H 	0.7266	0.5501	0.2663	0.02
Mof_H 	H 	0.7018	0.5304	0.2415	0.027
Mof_H 	H 	0.6986	0.52	0.235	0.012
Mof_C 	C 	0.7497	0.4194	0.3763	0.022
Mof_H 	H 	0.7619	0.4326	0.3609	0.019
Mof_O 	O 	0.62111	0.03547	0.82925	-0.49
Mof_O 	O 	0.66066	0.03522	0.79028	-0.485
Mof_C 	C 	0.63442	0.04643	0.80282	0.418
Mof_C 	C 	0.61715	0.07456	0.78569	-0.14
Mof_C 	C 	0.6323	0.0916	0.7586	0.003
Mof_H 	H 	0.6522	0.0824	0.7493	0.023
Mof_C 	C 	0.7242	0.02992	0.752	-0.102
Mof_H 	H 	0.7266	0.0501	0.7663	0.035
Mof_H 	H 	0.7018	0.0304	0.7415	0.171
Mof_H 	H 	0.6986	0.02	0.735	-0.142
Mof_C 	C 	0.7497	0.9194	0.8763	0.025
Mof_H 	H 	0.7619	0.9326	0.8609	0.022
Mof_O 	O 	0.87889	0.53547	0.17075	-0.485
Mof_O 	O 	0.83934	0.53522	0.20972	-0.48
Mof_C 	C 	0.86558	0.54643	0.19718	0.417
Mof_C 	C 	0.88285	0.57456	0.21431	-0.137
Mof_C 	C 	0.8677	0.5916	0.2414	0.001
Mof_H 	H 	0.8478	0.5824	0.2507	0.026
Mof_C 	C 	0.7758	0.52992	0.248	-0.03
Mof_H 	H 	0.7734	0.5501	0.2337	0.018
Mof_H 	H 	0.7982	0.5304	0.2585	0.029
Mof_H 	H 	0.8014	0.52	0.265	0.01
Mof_C 	C 	0.7503	0.4194	0.1237	0.021
Mof_H 	H 	0.7381	0.4326	0.1391	0.019
Mof_O 	O 	0.87889	0.03547	0.67075	-0.489
Mof_O 	O 	0.83934	0.03522	0.70972	-0.485
Mof_C 	C 	0.86558	0.04643	0.69718	0.418
Mof_C 	C 	0.88285	0.07456	0.71431	-0.139
Mof_C 	C 	0.8677	0.0916	0.7414	0.001
Mof_H 	H 	0.8478	0.0824	0.7507	0.024
Mof_C 	C 	0.7758	0.02992	0.748	-0.103
Mof_H 	H 	0.7734	0.0501	0.7337	0.032
Mof_H 	H 	0.7982	0.0304	0.7585	0.173
Mof_H 	H 	0.8014	0.02	0.765	-0.145
Mof_C 	C 	0.7503	0.9194	0.6237	0.023
Mof_H 	H 	0.7381	0.9326	0.6391	0.022
Mof_O 	O 	0.37889	0.53547	0.67075	-0.486
Mof_O 	O 	0.33934	0.53522	0.70972	-0.48
Mof_C 	C 	0.36558	0.54643	0.69718	0.417
Mof_C 	C 	0.38285	0.57456	0.71431	-0.138
Mof_C 	C 	0.3677	0.5916	0.7414	0.002
Mof_H 	H 	0.3478	0.5824	0.7507	0.025
Mof_C 	C 	0.2758	0.52992	0.748	-0.029
Mof_H 	H 	0.2734	0.5501	0.7337	0.018
Mof_H 	H 	0.2982	0.5304	0.7585	0.029
Mof_H 	H 	0.3014	0.52	0.765	0.01
Mof_C 	C 	0.2503	0.4194	0.6237	0.022
Mof_H 	H 	0.2381	0.4326	0.6391	0.019
Mof_O 	O 	0.37889	0.03547	0.17075	-0.491
Mof_O 	O 	0.33934	0.03522	0.20972	-0.485
Mof_C 	C 	0.36558	0.04643	0.19718	0.418
Mof_C 	C 	0.38285	0.07456	0.21431	-0.141
Mof_C 	C 	0.3677	0.0916	0.2414	0.003
Mof_H 	H 	0.3478	0.0824	0.2507	0.023
Mof_C 	C 	0.2758	0.02992	0.248	-0.102
Mof_H 	H 	0.2734	0.0501	0.2337	0.032
Mof_H 	H 	0.2982	0.0304	0.2585	0.171
Mof_H 	H 	0.3014	0.02	0.265	-0.143
Mof_C 	C 	0.2503	0.9194	0.1237	0.022
Mof_H 	H 	0.2381	0.9326	0.1391	0.021
Mof_O 	O 	0.46453	0.17075	0.12111	-0.488
Mof_O 	O 	0.46478	0.20972	0.16066	-0.48
Mof_C 	C 	0.45357	0.19718	0.13442	0.418
Mof_C 	C 	0.42544	0.21431	0.11715	-0.139
Mof_C 	C 	0.4084	0.2414	0.1323	0.004
Mof_H 	H 	0.4176	0.2507	0.1522	0.025
Mof_C 	C 	0.47008	0.248	0.2242	-0.029
Mof_H 	H 	0.4499	0.2337	0.2266	0.019
Mof_H 	H 	0.4696	0.2585	0.2018	0.027
Mof_H 	H 	0.48	0.265	0.1986	0.012
Mof_C 	C 	0.5806	0.1237	0.2497	0.022
Mof_H 	H 	0.5674	0.1391	0.2619	0.019
Mof_O 	O 	0.46453	0.67075	0.62111	-0.486
Mof_O 	O 	0.46478	0.70972	0.66066	-0.48
Mof_C 	C 	0.45357	0.69718	0.63442	0.417
Mof_C 	C 	0.42544	0.71431	0.61715	-0.138
Mof_C 	C 	0.4084	0.7414	0.6323	0.002
Mof_H 	H 	0.4176	0.7507	0.6522	0.025
Mof_C 	C 	0.47008	0.748	0.7242	-0.03
Mof_H 	H 	0.4499	0.7337	0.7266	0.019
Mof_H 	H 	0.4696	0.7585	0.7018	0.029
Mof_H 	H 	0.48	0.765	0.6986	0.011
Mof_C 	C 	0.5806	0.6237	0.7497	0.022
Mof_H 	H 	0.5674	0.6391	0.7619	0.019
Mof_O 	O 	0.96453	0.17075	0.62111	-0.48
Mof_O 	O 	0.96478	0.20972	0.66066	-0.475
Mof_C 	C 	0.95357	0.19718	0.63442	0.416
Mof_C 	C 	0.92544	0.21431	0.61715	-0.136
Mof_C 	C 	0.9084	0.2414	0.6323	0.001
Mof_H 	H 	0.9176	0.2507	0.6522	0.025
Mof_C 	C 	0.97008	0.248	0.7242	-0.083
Mof_H 	H 	0.9499	0.2337	0.7266	0.031
Mof_H 	H 	0.9696	0.2585	0.7018	0.132
Mof_H 	H 	0.98	0.265	0.6986	-0.098
Mof_C 	C 	0.0806	0.1237	0.7497	0.022
Mof_H 	H 	0.0674	0.1391	0.7619	0.018
Mof_O 	O 	0.96453	0.67075	0.12111	-0.481
Mof_O 	O 	0.96478	0.70972	0.16066	-0.475
Mof_C 	C 	0.95357	0.69718	0.13442	0.417
Mof_C 	C 	0.92544	0.71431	0.11715	-0.137
Mof_C 	C 	0.9084	0.7414	0.1323	0.002
Mof_H 	H 	0.9176	0.7507	0.1522	0.024
Mof_C 	C 	0.97008	0.748	0.2242	-0.083
Mof_H 	H 	0.9499	0.7337	0.2266	0.031
Mof_H 	H 	0.9696	0.7585	0.2018	0.133
Mof_H 	H 	0.98	0.765	0.1986	-0.099
Mof_C 	C 	0.0806	0.6237	0.2497	0.022
Mof_H 	H 	0.0674	0.6391	0.2619	0.018
Mof_O 	O 	0.46453	0.82925	0.87889	-0.484
Mof_O 	O 	0.46478	0.79028	0.83934	-0.479
Mof_C 	C 	0.45357	0.80282	0.86558	0.417
Mof_C 	C 	0.42544	0.78569	0.88285	-0.136
Mof_C 	C 	0.4084	0.7586	0.8677	0.001
Mof_H 	H 	0.4176	0.7493	0.8478	0.026
Mof_C 	C 	0.47008	0.752	0.7758	-0.03
Mof_H 	H 	0.4499	0.7663	0.7734	0.019
Mof_H 	H 	0.4696	0.7415	0.7982	0.029
Mof_H 	H 	0.48	0.735	0.8014	0.011
Mof_C 	C 	0.5806	0.8763	0.7503	0.023
Mof_H 	H 	0.5674	0.8609	0.7381	0.019
Mof_O 	O 	0.46453	0.32925	0.37889	-0.486
Mof_O 	O 	0.46478	0.29028	0.33934	-0.48
Mof_C 	C 	0.45357	0.30282	0.36558	0.417
Mof_C 	C 	0.42544	0.28569	0.38285	-0.138
Mof_C 	C 	0.4084	0.2586	0.3677	0.003
Mof_H 	H 	0.4176	0.2493	0.3478	0.025
Mof_C 	C 	0.47008	0.252	0.2758	-0.029
Mof_H 	H 	0.4499	0.2663	0.2734	0.019
Mof_H 	H 	0.4696	0.2415	0.2982	0.027
Mof_H 	H 	0.48	0.235	0.3014	0.012
Mof_C 	C 	0.5806	0.3763	0.2503	0.022
Mof_H 	H 	0.5674	0.3609	0.2381	0.019
Mof_O 	O 	0.96453	0.82925	0.37889	-0.479
Mof_O 	O 	0.96478	0.79028	0.33934	-0.475
Mof_C 	C 	0.95357	0.80282	0.36558	0.416
Mof_C 	C 	0.92544	0.78569	0.38285	-0.135
Mof_C 	C 	0.9084	0.7586	0.3677	0.001
Mof_H 	H 	0.9176	0.7493	0.3478	0.025
Mof_C 	C 	0.97008	0.752	0.2758	-0.083
Mof_H 	H 	0.9499	0.7663	0.2734	0.031
Mof_H 	H 	0.9696	0.7415	0.2982	0.132
Mof_H 	H 	0.98	0.735	0.3014	-0.098
Mof_C 	C 	0.0806	0.8763	0.2503	0.024
Mof_H 	H 	0.0674	0.8609	0.2381	0.018
Mof_O 	O 	0.96453	0.32925	0.87889	-0.478
Mof_O 	O 	0.96478	0.29028	0.83934	-0.474
Mof_C 	C 	0.95357	0.30282	0.86558	0.416
Mof_C 	C 	0.92544	0.28569	0.88285	-0.134
Mof_C 	C 	0.9084	0.2586	0.8677	-0
Mof_H 	H 	0.9176	0.2493	0.8478	0.025
Mof_C 	C 	0.97008	0.252	0.7758	-0.083
Mof_H 	H 	0.9499	0.2663	0.7734	0.03
Mof_H 	H 	0.9696	0.2415	0.7982	0.133
Mof_H 	H 	0.98	0.235	0.8014	-0.099
Mof_C 	C 	0.0806	0.3763	0.7503	0.022
Mof_H 	H 	0.0674	0.3609	0.7381	0.018
Mof_O 	O 	0.53547	0.17075	0.87889	-0.485
Mof_O 	O 	0.53522	0.20972	0.83934	-0.48
Mof_C 	C 	0.54643	0.19718	0.86558	0.417
Mof_C 	C 	0.57456	0.21431	0.88285	-0.137
Mof_C 	C 	0.5916	0.2414	0.8677	0.001
Mof_H 	H 	0.5824	0.2507	0.8478	0.026
Mof_C 	C 	0.52992	0.248	0.7758	-0.03
Mof_H 	H 	0.5501	0.2337	0.7734	0.018
Mof_H 	H 	0.5304	0.2585	0.7982	0.029
Mof_H 	H 	0.52	0.265	0.8014	0.01
Mof_C 	C 	0.4194	0.1237	0.7503	0.021
Mof_H 	H 	0.4326	0.1391	0.7381	0.019
Mof_O 	O 	0.53547	0.67075	0.37889	-0.486
Mof_O 	O 	0.53522	0.70972	0.33934	-0.48
Mof_C 	C 	0.54643	0.69718	0.36558	0.417
Mof_C 	C 	0.57456	0.71431	0.38285	-0.138
Mof_C 	C 	0.5916	0.7414	0.3677	0.002
Mof_H 	H 	0.5824	0.7507	0.3478	0.025
Mof_C 	C 	0.52992	0.748	0.2758	-0.029
Mof_H 	H 	0.5501	0.7337	0.2734	0.018
Mof_H 	H 	0.5304	0.7585	0.2982	0.029
Mof_H 	H 	0.52	0.765	0.3014	0.01
Mof_C 	C 	0.4194	0.6237	0.2503	0.022
Mof_H 	H 	0.4326	0.6391	0.2381	0.019
Mof_O 	O 	0.03547	0.17075	0.37889	-0.491
Mof_O 	O 	0.03522	0.20972	0.33934	-0.485
Mof_C 	C 	0.04643	0.19718	0.36558	0.418
Mof_C 	C 	0.07456	0.21431	0.38285	-0.141
Mof_C 	C 	0.0916	0.2414	0.3677	0.003
Mof_H 	H 	0.0824	0.2507	0.3478	0.023
Mof_C 	C 	0.02992	0.248	0.2758	-0.102
Mof_H 	H 	0.0501	0.2337	0.2734	0.032
Mof_H 	H 	0.0304	0.2585	0.2982	0.171
Mof_H 	H 	0.02	0.265	0.3014	-0.143
Mof_C 	C 	0.9194	0.1237	0.2503	0.022
Mof_H 	H 	0.9326	0.1391	0.2381	0.021
Mof_O 	O 	0.03547	0.67075	0.87889	-0.489
Mof_O 	O 	0.03522	0.70972	0.83934	-0.485
Mof_C 	C 	0.04643	0.69718	0.86558	0.418
Mof_C 	C 	0.07456	0.71431	0.88285	-0.139
Mof_C 	C 	0.0916	0.7414	0.8677	0.001
Mof_H 	H 	0.0824	0.7507	0.8478	0.024
Mof_C 	C 	0.02992	0.748	0.7758	-0.103
Mof_H 	H 	0.0501	0.7337	0.7734	0.032
Mof_H 	H 	0.0304	0.7585	0.7982	0.173
Mof_H 	H 	0.02	0.765	0.8014	-0.145
Mof_C 	C 	0.9194	0.6237	0.7503	0.023
Mof_H 	H 	0.9326	0.6391	0.7381	0.022
Mof_O 	O 	0.53547	0.82925	0.12111	-0.487
Mof_O 	O 	0.53522	0.79028	0.16066	-0.48
Mof_C 	C 	0.54643	0.80282	0.13442	0.417
Mof_C 	C 	0.57456	0.78569	0.11715	-0.139
Mof_C 	C 	0.5916	0.7586	0.1323	0.003
Mof_H 	H 	0.5824	0.7493	0.1522	0.025
Mof_C 	C 	0.52992	0.752	0.2242	-0.029
Mof_H 	H 	0.5501	0.7663	0.2266	0.021
Mof_H 	H 	0.5304	0.7415	0.2018	0.027
Mof_H 	H 	0.52	0.735	0.1986	0.012
Mof_C 	C 	0.4194	0.8763	0.2497	0.024
Mof_H 	H 	0.4326	0.8609	0.2619	0.019
Mof_O 	O 	0.53547	0.32925	0.62111	-0.486
Mof_O 	O 	0.53522	0.29028	0.66066	-0.48
Mof_C 	C 	0.54643	0.30282	0.63442	0.417
Mof_C 	C 	0.57456	0.28569	0.61715	-0.138
Mof_C 	C 	0.5916	0.2586	0.6323	0.003
Mof_H 	H 	0.5824	0.2493	0.6522	0.025
Mof_C 	C 	0.52992	0.252	0.7242	-0.029
Mof_H 	H 	0.5501	0.2663	0.7266	0.02
Mof_H 	H 	0.5304	0.2415	0.7018	0.027
Mof_H 	H 	0.52	0.235	0.6986	0.012
Mof_C 	C 	0.4194	0.3763	0.7497	0.022
Mof_H 	H 	0.4326	0.3609	0.7619	0.019
Mof_O 	O 	0.03547	0.82925	0.62111	-0.49
Mof_O 	O 	0.03522	0.79028	0.66066	-0.485
Mof_C 	C 	0.04643	0.80282	0.63442	0.418
Mof_C 	C 	0.07456	0.78569	0.61715	-0.14
Mof_C 	C 	0.0916	0.7586	0.6323	0.003
Mof_H 	H 	0.0824	0.7493	0.6522	0.023
Mof_C 	C 	0.02992	0.752	0.7242	-0.102
Mof_H 	H 	0.0501	0.7663	0.7266	0.035
Mof_H 	H 	0.0304	0.7415	0.7018	0.171
Mof_H 	H 	0.02	0.735	0.6986	-0.142
Mof_C 	C 	0.9194	0.8763	0.7497	0.025
Mof_H 	H 	0.9326	0.8609	0.7619	0.022
Mof_O 	O 	0.03547	0.32925	0.12111	-0.492
Mof_O 	O 	0.03522	0.29028	0.16066	-0.485
Mof_C 	C 	0.04643	0.30282	0.13442	0.419
Mof_C 	C 	0.07456	0.28569	0.11715	-0.142
Mof_C 	C 	0.0916	0.2586	0.1323	0.005
Mof_H 	H 	0.0824	0.2493	0.1522	0.023
Mof_C 	C 	0.02992	0.252	0.2242	-0.101
Mof_H 	H 	0.0501	0.2663	0.2266	0.034
Mof_H 	H 	0.0304	0.2415	0.2018	0.169
Mof_H 	H 	0.02	0.235	0.1986	-0.141
Mof_C 	C 	0.9194	0.3763	0.2497	0.023
Mof_H 	H 	0.9326	0.3609	0.2619	0.022
Mof_O 	O 	0.12111	0.82925	0.53547	-0.487
Mof_O 	O 	0.16066	0.79028	0.53522	-0.48
Mof_C 	C 	0.13442	0.80282	0.54643	0.417
Mof_C 	C 	0.11715	0.78569	0.57456	-0.139
Mof_C 	C 	0.1323	0.7586	0.5916	0.003
Mof_H 	H 	0.1522	0.7493	0.5824	0.025
Mof_C 	C 	0.2242	0.752	0.52992	-0.029
Mof_H 	H 	0.2266	0.7663	0.5501	0.021
Mof_H 	H 	0.2018	0.7415	0.5304	0.027
Mof_H 	H 	0.1986	0.735	0.52	0.012
Mof_C 	C 	0.2497	0.8763	0.4194	0.024
Mof_H 	H 	0.2619	0.8609	0.4326	0.019
Mof_O 	O 	0.12111	0.32925	0.03547	-0.492
Mof_O 	O 	0.16066	0.29028	0.03522	-0.485
Mof_C 	C 	0.13442	0.30282	0.04643	0.419
Mof_C 	C 	0.11715	0.28569	0.07456	-0.142
Mof_C 	C 	0.1323	0.2586	0.0916	0.005
Mof_H 	H 	0.1522	0.2493	0.0824	0.023
Mof_C 	C 	0.2242	0.252	0.02992	-0.101
Mof_H 	H 	0.2266	0.2663	0.0501	0.034
Mof_H 	H 	0.2018	0.2415	0.0304	0.169
Mof_H 	H 	0.1986	0.235	0.02	-0.141
Mof_C 	C 	0.2497	0.3763	0.9194	0.023
Mof_H 	H 	0.2619	0.3609	0.9326	0.022
Mof_O 	O 	0.62111	0.82925	0.03547	-0.49
Mof_O 	O 	0.66066	0.79028	0.03522	-0.485
Mof_C 	C 	0.63442	0.80282	0.04643	0.418
Mof_C 	C 	0.61715	0.78569	0.07456	-0.14
Mof_C 	C 	0.6323	0.7586	0.0916	0.003
Mof_H 	H 	0.6522	0.7493	0.0824	0.023
Mof_C 	C 	0.7242	0.752	0.02992	-0.102
Mof_H 	H 	0.7266	0.7663	0.0501	0.035
Mof_H 	H 	0.7018	0.7415	0.0304	0.171
Mof_H 	H 	0.6986	0.735	0.02	-0.142
Mof_C 	C 	0.7497	0.8763	0.9194	0.025
Mof_H 	H 	0.7619	0.8609	0.9326	0.022
Mof_O 	O 	0.62111	0.32925	0.53547	-0.486
Mof_O 	O 	0.66066	0.29028	0.53522	-0.48
Mof_C 	C 	0.63442	0.30282	0.54643	0.417
Mof_C 	C 	0.61715	0.28569	0.57456	-0.138
Mof_C 	C 	0.6323	0.2586	0.5916	0.003
Mof_H 	H 	0.6522	0.2493	0.5824	0.025
Mof_C 	C 	0.7242	0.252	0.52992	-0.029
Mof_H 	H 	0.7266	0.2663	0.5501	0.02
Mof_H 	H 	0.7018	0.2415	0.5304	0.027
Mof_H 	H 	0.6986	0.235	0.52	0.012
Mof_C 	C 	0.7497	0.3763	0.4194	0.022
Mof_H 	H 	0.7619	0.3609	0.4326	0.019
Mof_O 	O 	0.87889	0.17075	0.53547	-0.485
Mof_O 	O 	0.83934	0.20972	0.53522	-0.48
Mof_C 	C 	0.86558	0.19718	0.54643	0.417
Mof_C 	C 	0.88285	0.21431	0.57456	-0.137
Mof_C 	C 	0.8677	0.2414	0.5916	0.001
Mof_H 	H 	0.8478	0.2507	0.5824	0.026
Mof_C 	C 	0.7758	0.248	0.52992	-0.03
Mof_H 	H 	0.7734	0.2337	0.5501	0.018
Mof_H 	H 	0.7982	0.2585	0.5304	0.029
Mof_H 	H 	0.8014	0.265	0.52	0.01
Mof_C 	C 	0.7503	0.1237	0.4194	0.021
Mof_H 	H 	0.7381	0.1391	0.4326	0.019
Mof_O 	O 	0.87889	0.67075	0.03547	-0.489
Mof_O 	O 	0.83934	0.70972	0.03522	-0.485
Mof_C 	C 	0.86558	0.69718	0.04643	0.418
Mof_C 	C 	0.88285	0.71431	0.07456	-0.139
Mof_C 	C 	0.8677	0.7414	0.0916	0.001
Mof_H 	H 	0.8478	0.7507	0.0824	0.024
Mof_C 	C 	0.7758	0.748	0.02992	-0.103
Mof_H 	H 	0.7734	0.7337	0.0501	0.032
Mof_H 	H 	0.7982	0.7585	0.0304	0.173
Mof_H 	H 	0.8014	0.765	0.02	-0.145
Mof_C 	C 	0.7503	0.6237	0.9194	0.023
Mof_H 	H 	0.7381	0.6391	0.9326	0.022
Mof_O 	O 	0.37889	0.17075	0.03547	-0.491
Mof_O 	O 	0.33934	0.20972	0.03522	-0.485
Mof_C 	C 	0.36558	0.19718	0.04643	0.418
Mof_C 	C 	0.38285	0.21431	0.07456	-0.141
Mof_C 	C 	0.3677	0.2414	0.0916	0.003
Mof_H 	H 	0.3478	0.2507	0.0824	0.023
Mof_C 	C 	0.2758	0.248	0.02992	-0.102
Mof_H 	H 	0.2734	0.2337	0.0501	0.032
Mof_H 	H 	0.2982	0.2585	0.0304	0.171
Mof_H 	H 	0.3014	0.265	0.02	-0.143
Mof_C 	C 	0.2503	0.1237	0.9194	0.022
Mof_H 	H 	0.2381	0.1391	0.9326	0.021
Mof_O 	O 	0.37889	0.67075	0.53547	-0.486
Mof_O 	O 	0.33934	0.70972	0.53522	-0.48
Mof_C 	C 	0.36558	0.69718	0.54643	0.417
Mof_C 	C 	0.38285	0.71431	0.57456	-0.138
Mof_C 	C 	0.3677	0.7414	0.5916	0.002
Mof_H 	H 	0.3478	0.7507	0.5824	0.025
Mof_C 	C 	0.2758	0.748	0.52992	-0.029
Mof_H 	H 	0.2734	0.7337	0.5501	0.018
Mof_H 	H 	0.2982	0.7585	0.5304	0.029
Mof_H 	H 	0.3014	0.765	0.52	0.01
Mof_C 	C 	0.2503	0.6237	0.4194	0.022
Mof_H 	H 	0.2381	0.6391	0.4326	0.019
Mof_O 	O 	0.87889	0.82925	0.46453	-0.484
Mof_O 	O 	0.83934	0.79028	0.46478	-0.479
Mof_C 	C 	0.86558	0.80282	0.45357	0.417
Mof_C 	C 	0.88285	0.78569	0.42544	-0.136
Mof_C 	C 	0.8677	0.7586	0.4084	0.001
Mof_H 	H 	0.8478	0.7493	0.4176	0.026
Mof_C 	C 	0.7758	0.752	0.47008	-0.03
Mof_H 	H 	0.7734	0.7663	0.4499	0.019
Mof_H 	H 	0.7982	0.7415	0.4696	0.029
Mof_H 	H 	0.8014	0.735	0.48	0.011
Mof_C 	C 	0.7503	0.8763	0.5806	0.023
Mof_H 	H 	0.7381	0.8609	0.5674	0.019
Mof_O 	O 	0.87889	0.32925	0.96453	-0.478
Mof_O 	O 	0.83934	0.29028	0.96478	-0.474
Mof_C 	C 	0.86558	0.30282	0.95357	0.416
Mof_C 	C 	0.88285	0.28569	0.92544	-0.134
Mof_C 	C 	0.8677	0.2586	0.9084	-0
Mof_H 	H 	0.8478	0.2493	0.9176	0.025
Mof_C 	C 	0.7758	0.252	0.97008	-0.083
Mof_H 	H 	0.7734	0.2663	0.9499	0.03
Mof_H 	H 	0.7982	0.2415	0.9696	0.133
Mof_H 	H 	0.8014	0.235	0.98	-0.099
Mof_C 	C 	0.7503	0.3763	0.0806	0.022
Mof_H 	H 	0.7381	0.3609	0.0674	0.018
Mof_O 	O 	0.37889	0.82925	0.96453	-0.479
Mof_O 	O 	0.33934	0.79028	0.96478	-0.475
Mof_C 	C 	0.36558	0.80282	0.95357	0.416
Mof_C 	C 	0.38285	0.78569	0.92544	-0.135
Mof_C 	C 	0.3677	0.7586	0.9084	0.001
Mof_H 	H 	0.3478	0.7493	0.9176	0.025
Mof_C 	C 	0.2758	0.752	0.97008	-0.083
Mof_H 	H 	0.2734	0.7663	0.9499	0.031
Mof_H 	H 	0.2982	0.7415	0.9696	0.132
Mof_H 	H 	0.3014	0.735	0.98	-0.098
Mof_C 	C 	0.2503	0.8763	0.0806	0.024
Mof_H 	H 	0.2381	0.8609	0.0674	0.018
Mof_O 	O 	0.37889	0.32925	0.46453	-0.486
Mof_O 	O 	0.33934	0.29028	0.46478	-0.48
Mof_C 	C 	0.36558	0.30282	0.45357	0.417
Mof_C 	C 	0.38285	0.28569	0.42544	-0.138
Mof_C 	C 	0.3677	0.2586	0.4084	0.003
Mof_H 	H 	0.3478	0.2493	0.4176	0.025
Mof_C 	C 	0.2758	0.252	0.47008	-0.029
Mof_H 	H 	0.2734	0.2663	0.4499	0.019
Mof_H 	H 	0.2982	0.2415	0.4696	0.027
Mof_H 	H 	0.3014	0.235	0.48	0.012
Mof_C 	C 	0.2503	0.3763	0.5806	0.022
Mof_H 	H 	0.2381	0.3609	0.5674	0.019
Mof_O 	O 	0.12111	0.17075	0.46453	-0.488
Mof_O 	O 	0.16066	0.20972	0.46478	-0.48
Mof_C 	C 	0.13442	0.19718	0.45357	0.418
Mof_C 	C 	0.11715	0.21431	0.42544	-0.139
Mof_C 	C 	0.1323	0.2414	0.4084	0.004
Mof_H 	H 	0.1522	0.2507	0.4176	0.025
Mof_C 	C 	0.2242	0.248	0.47008	-0.029
Mof_H 	H 	0.2266	0.2337	0.4499	0.019
Mof_H 	H 	0.2018	0.2585	0.4696	0.027
Mof_H 	H 	0.1986	0.265	0.48	0.012
Mof_C 	C 	0.2497	0.1237	0.5806	0.022
Mof_H 	H 	0.2619	0.1391	0.5674	0.019
Mof_O 	O 	0.12111	0.67075	0.96453	-0.481
Mof_O 	O 	0.16066	0.70972	0.96478	-0.475
Mof_C 	C 	0.13442	0.69718	0.95357	0.417
Mof_C 	C 	0.11715	0.71431	0.92544	-0.137
Mof_C 	C 	0.1323	0.7414	0.9084	0.002
Mof_H 	H 	0.1522	0.7507	0.9176	0.024
Mof_C 	C 	0.2242	0.748	0.97008	-0.083
Mof_H 	H 	0.2266	0.7337	0.9499	0.031
Mof_H 	H 	0.2018	0.7585	0.9696	0.133
Mof_H 	H 	0.1986	0.765	0.98	-0.099
Mof_C 	C 	0.2497	0.6237	0.0806	0.022
Mof_H 	H 	0.2619	0.6391	0.0674	0.018
Mof_O 	O 	0.62111	0.17075	0.96453	-0.48
Mof_O 	O 	0.66066	0.20972	0.96478	-0.475
Mof_C 	C 	0.63442	0.19718	0.95357	0.416
Mof_C 	C 	0.61715	0.21431	0.92544	-0.136
Mof_C 	C 	0.6323	0.2414	0.9084	0.001
Mof_H 	H 	0.6522	0.2507	0.9176	0.025
Mof_C 	C 	0.7242	0.248	0.97008	-0.083
Mof_H 	H 	0.7266	0.2337	0.9499	0.031
Mof_H 	H 	0.7018	0.2585	0.9696	0.132
Mof_H 	H 	0.6986	0.265	0.98	-0.098
Mof_C 	C 	0.7497	0.1237	0.0806	0.022
Mof_H 	H 	0.7619	0.1391	0.0674	0.018
Mof_O 	O 	0.62111	0.67075	0.46453	-0.486
Mof_O 	O 	0.66066	0.70972	0.46478	-0.48
Mof_C 	C 	0.63442	0.69718	0.45357	0.417
Mof_C 	C 	0.61715	0.71431	0.42544	-0.138
Mof_C 	C 	0.6323	0.7414	0.4084	0.002
Mof_H 	H 	0.6522	0.7507	0.4176	0.025
Mof_C 	C 	0.7242	0.748	0.47008	-0.03
Mof_H 	H 	0.7266	0.7337	0.4499	0.019
Mof_H 	H 	0.7018	0.7585	0.4696	0.029
Mof_H 	H 	0.6986	0.765	0.48	0.011
Mof_C 	C 	0.7497	0.6237	0.5806	0.022
Mof_H 	H 	0.7619	0.6391	0.5674	0.019
Mof_O 	O 	0.53547	0.12111	0.82925	-0.487
Mof_O 	O 	0.53522	0.16066	0.79028	-0.48
Mof_C 	C 	0.54643	0.13442	0.80282	0.417
Mof_C 	C 	0.57456	0.11715	0.78569	-0.139
Mof_C 	C 	0.5916	0.1323	0.7586	0.003
Mof_H 	H 	0.5824	0.1522	0.7493	0.025
Mof_C 	C 	0.52992	0.2242	0.752	-0.029
Mof_H 	H 	0.5501	0.2266	0.7663	0.021
Mof_H 	H 	0.5304	0.2018	0.7415	0.027
Mof_H 	H 	0.52	0.1986	0.735	0.012
Mof_C 	C 	0.4194	0.2497	0.8763	0.024
Mof_H 	H 	0.4326	0.2619	0.8609	0.019
Mof_O 	O 	0.53547	0.62111	0.32925	-0.486
Mof_O 	O 	0.53522	0.66066	0.29028	-0.48
Mof_C 	C 	0.54643	0.63442	0.30282	0.417
Mof_C 	C 	0.57456	0.61715	0.28569	-0.138
Mof_C 	C 	0.5916	0.6323	0.2586	0.003
Mof_H 	H 	0.5824	0.6522	0.2493	0.025
Mof_C 	C 	0.52992	0.7242	0.252	-0.029
Mof_H 	H 	0.5501	0.7266	0.2663	0.02
Mof_H 	H 	0.5304	0.7018	0.2415	0.027
Mof_H 	H 	0.52	0.6986	0.235	0.012
Mof_C 	C 	0.4194	0.7497	0.3763	0.022
Mof_H 	H 	0.4326	0.7619	0.3609	0.019
Mof_O 	O 	0.03547	0.12111	0.32925	-0.492
Mof_O 	O 	0.03522	0.16066	0.29028	-0.485
Mof_C 	C 	0.04643	0.13442	0.30282	0.419
Mof_C 	C 	0.07456	0.11715	0.28569	-0.142
Mof_C 	C 	0.0916	0.1323	0.2586	0.005
Mof_H 	H 	0.0824	0.1522	0.2493	0.023
Mof_C 	C 	0.02992	0.2242	0.252	-0.101
Mof_H 	H 	0.0501	0.2266	0.2663	0.034
Mof_H 	H 	0.0304	0.2018	0.2415	0.169
Mof_H 	H 	0.02	0.1986	0.235	-0.141
Mof_C 	C 	0.9194	0.2497	0.3763	0.023
Mof_H 	H 	0.9326	0.2619	0.3609	0.022
Mof_O 	O 	0.03547	0.62111	0.82925	-0.49
Mof_O 	O 	0.03522	0.66066	0.79028	-0.485
Mof_C 	C 	0.04643	0.63442	0.80282	0.418
Mof_C 	C 	0.07456	0.61715	0.78569	-0.14
Mof_C 	C 	0.0916	0.6323	0.7586	0.003
Mof_H 	H 	0.0824	0.6522	0.7493	0.023
Mof_C 	C 	0.02992	0.7242	0.752	-0.102
Mof_H 	H 	0.0501	0.7266	0.7663	0.035
Mof_H 	H 	0.0304	0.7018	0.7415	0.171
Mof_H 	H 	0.02	0.6986	0.735	-0.142
Mof_C 	C 	0.9194	0.7497	0.8763	0.025
Mof_H 	H 	0.9326	0.7619	0.8609	0.022
Mof_O 	O 	0.53547	0.87889	0.17075	-0.485
Mof_O 	O 	0.53522	0.83934	0.20972	-0.48
Mof_C 	C 	0.54643	0.86558	0.19718	0.417
Mof_C 	C 	0.57456	0.88285	0.21431	-0.137
Mof_C 	C 	0.5916	0.8677	0.2414	0.001
Mof_H 	H 	0.5824	0.8478	0.2507	0.026
Mof_C 	C 	0.52992	0.7758	0.248	-0.03
Mof_H 	H 	0.5501	0.7734	0.2337	0.018
Mof_H 	H 	0.5304	0.7982	0.2585	0.029
Mof_H 	H 	0.52	0.8014	0.265	0.01
Mof_C 	C 	0.4194	0.7503	0.1237	0.021
Mof_H 	H 	0.4326	0.7381	0.1391	0.019
Mof_O 	O 	0.53547	0.37889	0.67075	-0.486
Mof_O 	O 	0.53522	0.33934	0.70972	-0.48
Mof_C 	C 	0.54643	0.36558	0.69718	0.417
Mof_C 	C 	0.57456	0.38285	0.71431	-0.138
Mof_C 	C 	0.5916	0.3677	0.7414	0.002
Mof_H 	H 	0.5824	0.3478	0.7507	0.025
Mof_C 	C 	0.52992	0.2758	0.748	-0.029
Mof_H 	H 	0.5501	0.2734	0.7337	0.018
Mof_H 	H 	0.5304	0.2982	0.7585	0.029
Mof_H 	H 	0.52	0.3014	0.765	0.01
Mof_C 	C 	0.4194	0.2503	0.6237	0.022
Mof_H 	H 	0.4326	0.2381	0.6391	0.019
Mof_O 	O 	0.03547	0.87889	0.67075	-0.489
Mof_O 	O 	0.03522	0.83934	0.70972	-0.485
Mof_C 	C 	0.04643	0.86558	0.69718	0.418
Mof_C 	C 	0.07456	0.88285	0.71431	-0.139
Mof_C 	C 	0.0916	0.8677	0.7414	0.001
Mof_H 	H 	0.0824	0.8478	0.7507	0.024
Mof_C 	C 	0.02992	0.7758	0.748	-0.103
Mof_H 	H 	0.0501	0.7734	0.7337	0.032
Mof_H 	H 	0.0304	0.7982	0.7585	0.173
Mof_H 	H 	0.02	0.8014	0.765	-0.145
Mof_C 	C 	0.9194	0.7503	0.6237	0.023
Mof_H 	H 	0.9326	0.7381	0.6391	0.022
Mof_O 	O 	0.03547	0.37889	0.17075	-0.491
Mof_O 	O 	0.03522	0.33934	0.20972	-0.485
Mof_C 	C 	0.04643	0.36558	0.19718	0.418
Mof_C 	C 	0.07456	0.38285	0.21431	-0.141
Mof_C 	C 	0.0916	0.3677	0.2414	0.003
Mof_H 	H 	0.0824	0.3478	0.2507	0.023
Mof_C 	C 	0.02992	0.2758	0.248	-0.102
Mof_H 	H 	0.0501	0.2734	0.2337	0.032
Mof_H 	H 	0.0304	0.2982	0.2585	0.171
Mof_H 	H 	0.02	0.3014	0.265	-0.143
Mof_C 	C 	0.9194	0.2503	0.1237	0.022
Mof_H 	H 	0.9326	0.2381	0.1391	0.021
Mof_O 	O 	0.46453	0.87889	0.82925	-0.484
Mof_O 	O 	0.46478	0.83934	0.79028	-0.479
Mof_C 	C 	0.45357	0.86558	0.80282	0.417
Mof_C 	C 	0.42544	0.88285	0.78569	-0.136
Mof_C 	C 	0.4084	0.8677	0.7586	0.001
Mof_H 	H 	0.4176	0.8478	0.7493	0.026
Mof_C 	C 	0.47008	0.7758	0.752	-0.03
Mof_H 	H 	0.4499	0.7734	0.7663	0.019
Mof_H 	H 	0.4696	0.7982	0.7415	0.029
Mof_H 	H 	0.48	0.8014	0.735	0.011
Mof_C 	C 	0.5806	0.7503	0.8763	0.023
Mof_H 	H 	0.5674	0.7381	0.8609	0.019
Mof_O 	O 	0.46453	0.37889	0.32925	-0.486
Mof_O 	O 	0.46478	0.33934	0.29028	-0.48
Mof_C 	C 	0.45357	0.36558	0.30282	0.417
Mof_C 	C 	0.42544	0.38285	0.28569	-0.138
Mof_C 	C 	0.4084	0.3677	0.2586	0.003
Mof_H 	H 	0.4176	0.3478	0.2493	0.025
Mof_C 	C 	0.47008	0.2758	0.252	-0.029
Mof_H 	H 	0.4499	0.2734	0.2663	0.019
Mof_H 	H 	0.4696	0.2982	0.2415	0.027
Mof_H 	H 	0.48	0.3014	0.235	0.012
Mof_C 	C 	0.5806	0.2503	0.3763	0.022
Mof_H 	H 	0.5674	0.2381	0.3609	0.019
Mof_O 	O 	0.96453	0.87889	0.32925	-0.478
Mof_O 	O 	0.96478	0.83934	0.29028	-0.474
Mof_C 	C 	0.95357	0.86558	0.30282	0.416
Mof_C 	C 	0.92544	0.88285	0.28569	-0.134
Mof_C 	C 	0.9084	0.8677	0.2586	-0
Mof_H 	H 	0.9176	0.8478	0.2493	0.025
Mof_C 	C 	0.97008	0.7758	0.252	-0.083
Mof_H 	H 	0.9499	0.7734	0.2663	0.03
Mof_H 	H 	0.9696	0.7982	0.2415	0.133
Mof_H 	H 	0.98	0.8014	0.235	-0.099
Mof_C 	C 	0.0806	0.7503	0.3763	0.022
Mof_H 	H 	0.0674	0.7381	0.3609	0.018
Mof_O 	O 	0.96453	0.37889	0.82925	-0.479
Mof_O 	O 	0.96478	0.33934	0.79028	-0.475
Mof_C 	C 	0.95357	0.36558	0.80282	0.416
Mof_C 	C 	0.92544	0.38285	0.78569	-0.135
Mof_C 	C 	0.9084	0.3677	0.7586	0.001
Mof_H 	H 	0.9176	0.3478	0.7493	0.025
Mof_C 	C 	0.97008	0.2758	0.752	-0.083
Mof_H 	H 	0.9499	0.2734	0.7663	0.031
Mof_H 	H 	0.9696	0.2982	0.7415	0.132
Mof_H 	H 	0.98	0.3014	0.735	-0.098
Mof_C 	C 	0.0806	0.2503	0.8763	0.024
Mof_H 	H 	0.0674	0.2381	0.8609	0.018
Mof_O 	O 	0.46453	0.12111	0.17075	-0.488
Mof_O 	O 	0.46478	0.16066	0.20972	-0.48
Mof_C 	C 	0.45357	0.13442	0.19718	0.418
Mof_C 	C 	0.42544	0.11715	0.21431	-0.139
Mof_C 	C 	0.4084	0.1323	0.2414	0.004
Mof_H 	H 	0.4176	0.1522	0.2507	0.025
Mof_C 	C 	0.47008	0.2242	0.248	-0.029
Mof_H 	H 	0.4499	0.2266	0.2337	0.019
Mof_H 	H 	0.4696	0.2018	0.2585	0.027
Mof_H 	H 	0.48	0.1986	0.265	0.012
Mof_C 	C 	0.5806	0.2497	0.1237	0.022
Mof_H 	H 	0.5674	0.2619	0.1391	0.019
Mof_O 	O 	0.46453	0.62111	0.67075	-0.486
Mof_O 	O 	0.46478	0.66066	0.70972	-0.48
Mof_C 	C 	0.45357	0.63442	0.69718	0.417
Mof_C 	C 	0.42544	0.61715	0.71431	-0.138
Mof_C 	C 	0.4084	0.6323	0.7414	0.002
Mof_H 	H 	0.4176	0.6522	0.7507	0.025
Mof_C 	C 	0.47008	0.7242	0.748	-0.03
Mof_H 	H 	0.4499	0.7266	0.7337	0.019
Mof_H 	H 	0.4696	0.7018	0.7585	0.029
Mof_H 	H 	0.48	0.6986	0.765	0.011
Mof_C 	C 	0.5806	0.7497	0.6237	0.022
Mof_H 	H 	0.5674	0.7619	0.6391	0.019
Mof_O 	O 	0.96453	0.12111	0.67075	-0.481
Mof_O 	O 	0.96478	0.16066	0.70972	-0.475
Mof_C 	C 	0.95357	0.13442	0.69718	0.417
Mof_C 	C 	0.92544	0.11715	0.71431	-0.137
Mof_C 	C 	0.9084	0.1323	0.7414	0.002
Mof_H 	H 	0.9176	0.1522	0.7507	0.024
Mof_C 	C 	0.97008	0.2242	0.748	-0.083
Mof_H 	H 	0.9499	0.2266	0.7337	0.031
Mof_H 	H 	0.9696	0.2018	0.7585	0.133
Mof_H 	H 	0.98	0.1986	0.765	-0.099
Mof_C 	C 	0.0806	0.2497	0.6237	0.022
Mof_H 	H 	0.0674	0.2619	0.6391	0.018
Mof_O 	O 	0.96453	0.62111	0.17075	-0.48
Mof_O 	O 	0.96478	0.66066	0.20972	-0.475
Mof_C 	C 	0.95357	0.63442	0.19718	0.416
Mof_C 	C 	0.92544	0.61715	0.21431	-0.136
Mof_C 	C 	0.9084	0.6323	0.2414	0.001
Mof_H 	H 	0.9176	0.6522	0.2507	0.025
Mof_C 	C 	0.97008	0.7242	0.248	-0.083
Mof_H 	H 	0.9499	0.7266	0.2337	0.031
Mof_H 	H 	0.9696	0.7018	0.2585	0.132
Mof_H 	H 	0.98	0.6986	0.265	-0.098
Mof_C 	C 	0.0806	0.7497	0.1237	0.022
Mof_H 	H 	0.0674	0.7619	0.1391	0.018
Mof_O 	O 	0.82925	0.53547	0.12111	-0.487
Mof_O 	O 	0.79028	0.53522	0.16066	-0.48
Mof_C 	C 	0.80282	0.54643	0.13442	0.417
Mof_C 	C 	0.78569	0.57456	0.11715	-0.139
Mof_C 	C 	0.7586	0.5916	0.1323	0.003
Mof_H 	H 	0.7493	0.5824	0.1522	0.025
Mof_C 	C 	0.752	0.52992	0.2242	-0.029
Mof_H 	H 	0.7663	0.5501	0.2266	0.021
Mof_H 	H 	0.7415	0.5304	0.2018	0.027
Mof_H 	H 	0.735	0.52	0.1986	0.012
Mof_C 	C 	0.8763	0.4194	0.2497	0.024
Mof_H 	H 	0.8609	0.4326	0.2619	0.019
Mof_O 	O 	0.82925	0.03547	0.62111	-0.49
Mof_O 	O 	0.79028	0.03522	0.66066	-0.485
Mof_C 	C 	0.80282	0.04643	0.63442	0.418
Mof_C 	C 	0.78569	0.07456	0.61715	-0.14
Mof_C 	C 	0.7586	0.0916	0.6323	0.003
Mof_H 	H 	0.7493	0.0824	0.6522	0.023
Mof_C 	C 	0.752	0.02992	0.7242	-0.102
Mof_H 	H 	0.7663	0.0501	0.7266	0.035
Mof_H 	H 	0.7415	0.0304	0.7018	0.171
Mof_H 	H 	0.735	0.02	0.6986	-0.142
Mof_C 	C 	0.8763	0.9194	0.7497	0.025
Mof_H 	H 	0.8609	0.9326	0.7619	0.022
Mof_O 	O 	0.32925	0.53547	0.62111	-0.486
Mof_O 	O 	0.29028	0.53522	0.66066	-0.48
Mof_C 	C 	0.30282	0.54643	0.63442	0.417
Mof_C 	C 	0.28569	0.57456	0.61715	-0.138
Mof_C 	C 	0.2586	0.5916	0.6323	0.003
Mof_H 	H 	0.2493	0.5824	0.6522	0.025
Mof_C 	C 	0.252	0.52992	0.7242	-0.029
Mof_H 	H 	0.2663	0.5501	0.7266	0.02
Mof_H 	H 	0.2415	0.5304	0.7018	0.027
Mof_H 	H 	0.235	0.52	0.6986	0.012
Mof_C 	C 	0.3763	0.4194	0.7497	0.022
Mof_H 	H 	0.3609	0.4326	0.7619	0.019
Mof_O 	O 	0.32925	0.03547	0.12111	-0.492
Mof_O 	O 	0.29028	0.03522	0.16066	-0.485
Mof_C 	C 	0.30282	0.04643	0.13442	0.419
Mof_C 	C 	0.28569	0.07456	0.11715	-0.142
Mof_C 	C 	0.2586	0.0916	0.1323	0.005
Mof_H 	H 	0.2493	0.0824	0.1522	0.023
Mof_C 	C 	0.252	0.02992	0.2242	-0.101
Mof_H 	H 	0.2663	0.0501	0.2266	0.034
Mof_H 	H 	0.2415	0.0304	0.2018	0.169
Mof_H 	H 	0.235	0.02	0.1986	-0.141
Mof_C 	C 	0.3763	0.9194	0.2497	0.023
Mof_H 	H 	0.3609	0.9326	0.2619	0.022
Mof_O 	O 	0.17075	0.53547	0.87889	-0.485
Mof_O 	O 	0.20972	0.53522	0.83934	-0.48
Mof_C 	C 	0.19718	0.54643	0.86558	0.417
Mof_C 	C 	0.21431	0.57456	0.88285	-0.137
Mof_C 	C 	0.2414	0.5916	0.8677	0.001
Mof_H 	H 	0.2507	0.5824	0.8478	0.026
Mof_C 	C 	0.248	0.52992	0.7758	-0.03
Mof_H 	H 	0.2337	0.5501	0.7734	0.018
Mof_H 	H 	0.2585	0.5304	0.7982	0.029
Mof_H 	H 	0.265	0.52	0.8014	0.01
Mof_C 	C 	0.1237	0.4194	0.7503	0.021
Mof_H 	H 	0.1391	0.4326	0.7381	0.019
Mof_O 	O 	0.17075	0.03547	0.37889	-0.491
Mof_O 	O 	0.20972	0.03522	0.33934	-0.485
Mof_C 	C 	0.19718	0.04643	0.36558	0.418
Mof_C 	C 	0.21431	0.07456	0.38285	-0.141
Mof_C 	C 	0.2414	0.0916	0.3677	0.003
Mof_H 	H 	0.2507	0.0824	0.3478	0.023
Mof_C 	C 	0.248	0.02992	0.2758	-0.102
Mof_H 	H 	0.2337	0.0501	0.2734	0.032
Mof_H 	H 	0.2585	0.0304	0.2982	0.171
Mof_H 	H 	0.265	0.02	0.3014	-0.143
Mof_C 	C 	0.1237	0.9194	0.2503	0.022
Mof_H 	H 	0.1391	0.9326	0.2381	0.021
Mof_O 	O 	0.67075	0.53547	0.37889	-0.486
Mof_O 	O 	0.70972	0.53522	0.33934	-0.48
Mof_C 	C 	0.69718	0.54643	0.36558	0.417
Mof_C 	C 	0.71431	0.57456	0.38285	-0.138
Mof_C 	C 	0.7414	0.5916	0.3677	0.002
Mof_H 	H 	0.7507	0.5824	0.3478	0.025
Mof_C 	C 	0.748	0.52992	0.2758	-0.029
Mof_H 	H 	0.7337	0.5501	0.2734	0.018
Mof_H 	H 	0.7585	0.5304	0.2982	0.029
Mof_H 	H 	0.765	0.52	0.3014	0.01
Mof_C 	C 	0.6237	0.4194	0.2503	0.022
Mof_H 	H 	0.6391	0.4326	0.2381	0.019
Mof_O 	O 	0.67075	0.03547	0.87889	-0.489
Mof_O 	O 	0.70972	0.03522	0.83934	-0.485
Mof_C 	C 	0.69718	0.04643	0.86558	0.418
Mof_C 	C 	0.71431	0.07456	0.88285	-0.139
Mof_C 	C 	0.7414	0.0916	0.8677	0.001
Mof_H 	H 	0.7507	0.0824	0.8478	0.024
Mof_C 	C 	0.748	0.02992	0.7758	-0.103
Mof_H 	H 	0.7337	0.0501	0.7734	0.032
Mof_H 	H 	0.7585	0.0304	0.7982	0.173
Mof_H 	H 	0.765	0.02	0.8014	-0.145
Mof_C 	C 	0.6237	0.9194	0.7503	0.023
Mof_H 	H 	0.6391	0.9326	0.7381	0.022
Mof_O 	O 	0.82925	0.46453	0.87889	-0.484
Mof_O 	O 	0.79028	0.46478	0.83934	-0.479
Mof_C 	C 	0.80282	0.45357	0.86558	0.417
Mof_C 	C 	0.78569	0.42544	0.88285	-0.136
Mof_C 	C 	0.7586	0.4084	0.8677	0.001
Mof_H 	H 	0.7493	0.4176	0.8478	0.026
Mof_C 	C 	0.752	0.47008	0.7758	-0.03
Mof_H 	H 	0.7663	0.4499	0.7734	0.019
Mof_H 	H 	0.7415	0.4696	0.7982	0.029
Mof_H 	H 	0.735	0.48	0.8014	0.011
Mof_C 	C 	0.8763	0.5806	0.7503	0.023
Mof_H 	H 	0.8609	0.5674	0.7381	0.019
Mof_O 	O 	0.82925	0.96453	0.37889	-0.479
Mof_O 	O 	0.79028	0.96478	0.33934	-0.475
Mof_C 	C 	0.80282	0.95357	0.36558	0.416
Mof_C 	C 	0.78569	0.92544	0.38285	-0.135
Mof_C 	C 	0.7586	0.9084	0.3677	0.001
Mof_H 	H 	0.7493	0.9176	0.3478	0.025
Mof_C 	C 	0.752	0.97008	0.2758	-0.083
Mof_H 	H 	0.7663	0.9499	0.2734	0.031
Mof_H 	H 	0.7415	0.9696	0.2982	0.132
Mof_H 	H 	0.735	0.98	0.3014	-0.098
Mof_C 	C 	0.8763	0.0806	0.2503	0.024
Mof_H 	H 	0.8609	0.0674	0.2381	0.018
Mof_O 	O 	0.32925	0.46453	0.37889	-0.486
Mof_O 	O 	0.29028	0.46478	0.33934	-0.48
Mof_C 	C 	0.30282	0.45357	0.36558	0.417
Mof_C 	C 	0.28569	0.42544	0.38285	-0.138
Mof_C 	C 	0.2586	0.4084	0.3677	0.003
Mof_H 	H 	0.2493	0.4176	0.3478	0.025
Mof_C 	C 	0.252	0.47008	0.2758	-0.029
Mof_H 	H 	0.2663	0.4499	0.2734	0.019
Mof_H 	H 	0.2415	0.4696	0.2982	0.027
Mof_H 	H 	0.235	0.48	0.3014	0.012
Mof_C 	C 	0.3763	0.5806	0.2503	0.022
Mof_H 	H 	0.3609	0.5674	0.2381	0.019
Mof_O 	O 	0.32925	0.96453	0.87889	-0.478
Mof_O 	O 	0.29028	0.96478	0.83934	-0.474
Mof_C 	C 	0.30282	0.95357	0.86558	0.416
Mof_C 	C 	0.28569	0.92544	0.88285	-0.134
Mof_C 	C 	0.2586	0.9084	0.8677	-0
Mof_H 	H 	0.2493	0.9176	0.8478	0.025
Mof_C 	C 	0.252	0.97008	0.7758	-0.083
Mof_H 	H 	0.2663	0.9499	0.7734	0.03
Mof_H 	H 	0.2415	0.9696	0.7982	0.133
Mof_H 	H 	0.235	0.98	0.8014	-0.099
Mof_C 	C 	0.3763	0.0806	0.7503	0.022
Mof_H 	H 	0.3609	0.0674	0.7381	0.018
Mof_O 	O 	0.17075	0.46453	0.12111	-0.488
Mof_O 	O 	0.20972	0.46478	0.16066	-0.48
Mof_C 	C 	0.19718	0.45357	0.13442	0.418
Mof_C 	C 	0.21431	0.42544	0.11715	-0.139
Mof_C 	C 	0.2414	0.4084	0.1323	0.004
Mof_H 	H 	0.2507	0.4176	0.1522	0.025
Mof_C 	C 	0.248	0.47008	0.2242	-0.029
Mof_H 	H 	0.2337	0.4499	0.2266	0.019
Mof_H 	H 	0.2585	0.4696	0.2018	0.027
Mof_H 	H 	0.265	0.48	0.1986	0.012
Mof_C 	C 	0.1237	0.5806	0.2497	0.022
Mof_H 	H 	0.1391	0.5674	0.2619	0.019
Mof_O 	O 	0.17075	0.96453	0.62111	-0.48
Mof_O 	O 	0.20972	0.96478	0.66066	-0.475
Mof_C 	C 	0.19718	0.95357	0.63442	0.416
Mof_C 	C 	0.21431	0.92544	0.61715	-0.136
Mof_C 	C 	0.2414	0.9084	0.6323	0.001
Mof_H 	H 	0.2507	0.9176	0.6522	0.025
Mof_C 	C 	0.248	0.97008	0.7242	-0.083
Mof_H 	H 	0.2337	0.9499	0.7266	0.031
Mof_H 	H 	0.2585	0.9696	0.7018	0.132
Mof_H 	H 	0.265	0.98	0.6986	-0.098
Mof_C 	C 	0.1237	0.0806	0.7497	0.022
Mof_H 	H 	0.1391	0.0674	0.7619	0.018
Mof_O 	O 	0.67075	0.46453	0.62111	-0.486
Mof_O 	O 	0.70972	0.46478	0.66066	-0.48
Mof_C 	C 	0.69718	0.45357	0.63442	0.417
Mof_C 	C 	0.71431	0.42544	0.61715	-0.138
Mof_C 	C 	0.7414	0.4084	0.6323	0.002
Mof_H 	H 	0.7507	0.4176	0.6522	0.025
Mof_C 	C 	0.748	0.47008	0.7242	-0.03
Mof_H 	H 	0.7337	0.4499	0.7266	0.019
Mof_H 	H 	0.7585	0.4696	0.7018	0.029
Mof_H 	H 	0.765	0.48	0.6986	0.011
Mof_C 	C 	0.6237	0.5806	0.7497	0.022
Mof_H 	H 	0.6391	0.5674	0.7619	0.019
Mof_O 	O 	0.67075	0.96453	0.12111	-0.481
Mof_O 	O 	0.70972	0.96478	0.16066	-0.475
Mof_C 	C 	0.69718	0.95357	0.13442	0.417
Mof_C 	C 	0.71431	0.92544	0.11715	-0.137
Mof_C 	C 	0.7414	0.9084	0.1323	0.002
Mof_H 	H 	0.7507	0.9176	0.1522	0.024
Mof_C 	C 	0.748	0.97008	0.2242	-0.083
Mof_H 	H 	0.7337	0.9499	0.2266	0.031
Mof_H 	H 	0.7585	0.9696	0.2018	0.133
Mof_H 	H 	0.765	0.98	0.1986	-0.099
Mof_C 	C 	0.6237	0.0806	0.2497	0.022
Mof_H 	H 	0.6391	0.0674	0.2619	0.018
Mof_O 	O 	0.82925	0.12111	0.46453	-0.487
Mof_O 	O 	0.79028	0.16066	0.46478	-0.48
Mof_C 	C 	0.80282	0.13442	0.45357	0.417
Mof_C 	C 	0.78569	0.11715	0.42544	-0.139
Mof_C 	C 	0.7586	0.1323	0.4084	0.003
Mof_H 	H 	0.7493	0.1522	0.4176	0.025
Mof_C 	C 	0.752	0.2242	0.47008	-0.029
Mof_H 	H 	0.7663	0.2266	0.4499	0.021
Mof_H 	H 	0.7415	0.2018	0.4696	0.027
Mof_H 	H 	0.735	0.1986	0.48	0.012
Mof_C 	C 	0.8763	0.2497	0.5806	0.024
Mof_H 	H 	0.8609	0.2619	0.5674	0.019
Mof_O 	O 	0.82925	0.62111	0.96453	-0.479
Mof_O 	O 	0.79028	0.66066	0.96478	-0.475
Mof_C 	C 	0.80282	0.63442	0.95357	0.416
Mof_C 	C 	0.78569	0.61715	0.92544	-0.136
Mof_C 	C 	0.7586	0.6323	0.9084	0.001
Mof_H 	H 	0.7493	0.6522	0.9176	0.025
Mof_C 	C 	0.752	0.7242	0.97008	-0.083
Mof_H 	H 	0.7663	0.7266	0.9499	0.032
Mof_H 	H 	0.7415	0.7018	0.9696	0.132
Mof_H 	H 	0.735	0.6986	0.98	-0.098
Mof_C 	C 	0.8763	0.7497	0.0806	0.024
Mof_H 	H 	0.8609	0.7619	0.0674	0.019
Mof_O 	O 	0.32925	0.12111	0.96453	-0.481
Mof_O 	O 	0.29028	0.16066	0.96478	-0.475
Mof_C 	C 	0.30282	0.13442	0.95357	0.417
Mof_C 	C 	0.28569	0.11715	0.92544	-0.137
Mof_C 	C 	0.2586	0.1323	0.9084	0.002
Mof_H 	H 	0.2493	0.1522	0.9176	0.024
Mof_C 	C 	0.252	0.2242	0.97008	-0.082
Mof_H 	H 	0.2663	0.2266	0.9499	0.032
Mof_H 	H 	0.2415	0.2018	0.9696	0.131
Mof_H 	H 	0.235	0.1986	0.98	-0.097
Mof_C 	C 	0.3763	0.2497	0.0806	0.022
Mof_H 	H 	0.3609	0.2619	0.0674	0.018
Mof_O 	O 	0.32925	0.62111	0.46453	-0.486
Mof_O 	O 	0.29028	0.66066	0.46478	-0.48
Mof_C 	C 	0.30282	0.63442	0.45357	0.417
Mof_C 	C 	0.28569	0.61715	0.42544	-0.138
Mof_C 	C 	0.2586	0.6323	0.4084	0.003
Mof_H 	H 	0.2493	0.6522	0.4176	0.025
Mof_C 	C 	0.252	0.7242	0.47008	-0.029
Mof_H 	H 	0.2663	0.7266	0.4499	0.02
Mof_H 	H 	0.2415	0.7018	0.4696	0.027
Mof_H 	H 	0.235	0.6986	0.48	0.012
Mof_C 	C 	0.3763	0.7497	0.5806	0.022
Mof_H 	H 	0.3609	0.7619	0.5674	0.019
Mof_O 	O 	0.17075	0.87889	0.46453	-0.485
Mof_O 	O 	0.20972	0.83934	0.46478	-0.48
Mof_C 	C 	0.19718	0.86558	0.45357	0.417
Mof_C 	C 	0.21431	0.88285	0.42544	-0.137
Mof_C 	C 	0.2414	0.8677	0.4084	0.001
Mof_H 	H 	0.2507	0.8478	0.4176	0.026
Mof_C 	C 	0.248	0.7758	0.47008	-0.03
Mof_H 	H 	0.2337	0.7734	0.4499	0.018
Mof_H 	H 	0.2585	0.7982	0.4696	0.029
Mof_H 	H 	0.265	0.8014	0.48	0.01
Mof_C 	C 	0.1237	0.7503	0.5806	0.021
Mof_H 	H 	0.1391	0.7381	0.5674	0.019
Mof_O 	O 	0.17075	0.37889	0.96453	-0.48
Mof_O 	O 	0.20972	0.33934	0.96478	-0.475
Mof_C 	C 	0.19718	0.36558	0.95357	0.416
Mof_C 	C 	0.21431	0.38285	0.92544	-0.136
Mof_C 	C 	0.2414	0.3677	0.9084	0.001
Mof_H 	H 	0.2507	0.3478	0.9176	0.025
Mof_C 	C 	0.248	0.2758	0.97008	-0.083
Mof_H 	H 	0.2337	0.2734	0.9499	0.03
Mof_H 	H 	0.2585	0.2982	0.9696	0.133
Mof_H 	H 	0.265	0.3014	0.98	-0.099
Mof_C 	C 	0.1237	0.2503	0.0806	0.022
Mof_H 	H 	0.1391	0.2381	0.0674	0.018
Mof_O 	O 	0.67075	0.87889	0.96453	-0.478
Mof_O 	O 	0.70972	0.83934	0.96478	-0.474
Mof_C 	C 	0.69718	0.86558	0.95357	0.416
Mof_C 	C 	0.71431	0.88285	0.92544	-0.134
Mof_C 	C 	0.7414	0.8677	0.9084	-0.001
Mof_H 	H 	0.7507	0.8478	0.9176	0.025
Mof_C 	C 	0.748	0.7758	0.97008	-0.084
Mof_H 	H 	0.7337	0.7734	0.9499	0.029
Mof_H 	H 	0.7585	0.7982	0.9696	0.135
Mof_H 	H 	0.765	0.8014	0.98	-0.101
Mof_C 	C 	0.6237	0.7503	0.0806	0.022
Mof_H 	H 	0.6391	0.7381	0.0674	0.018
Mof_O 	O 	0.67075	0.37889	0.46453	-0.486
Mof_O 	O 	0.70972	0.33934	0.46478	-0.48
Mof_C 	C 	0.69718	0.36558	0.45357	0.417
Mof_C 	C 	0.71431	0.38285	0.42544	-0.138
Mof_C 	C 	0.7414	0.3677	0.4084	0.002
Mof_H 	H 	0.7507	0.3478	0.4176	0.025
Mof_C 	C 	0.748	0.2758	0.47008	-0.029
Mof_H 	H 	0.7337	0.2734	0.4499	0.018
Mof_H 	H 	0.7585	0.2982	0.4696	0.029
Mof_H 	H 	0.765	0.3014	0.48	0.01
Mof_C 	C 	0.6237	0.2503	0.5806	0.022
Mof_H 	H 	0.6391	0.2381	0.5674	0.019
Mof_O 	O 	0.82925	0.87889	0.53547	-0.485
Mof_O 	O 	0.79028	0.83934	0.53522	-0.48
Mof_C 	C 	0.80282	0.86558	0.54643	0.417
Mof_C 	C 	0.78569	0.88285	0.57456	-0.136
Mof_C 	C 	0.7586	0.8677	0.5916	0.001
Mof_H 	H 	0.7493	0.8478	0.5824	0.026
Mof_C 	C 	0.752	0.7758	0.52992	-0.03
Mof_H 	H 	0.7663	0.7734	0.5501	0.019
Mof_H 	H 	0.7415	0.7982	0.5304	0.029
Mof_H 	H 	0.735	0.8014	0.52	0.011
Mof_C 	C 	0.8763	0.7503	0.4194	0.023
Mof_H 	H 	0.8609	0.7381	0.4326	0.019
Mof_O 	O 	0.82925	0.37889	0.03547	-0.49
Mof_O 	O 	0.79028	0.33934	0.03522	-0.485
Mof_C 	C 	0.80282	0.36558	0.04643	0.418
Mof_C 	C 	0.78569	0.38285	0.07456	-0.14
Mof_C 	C 	0.7586	0.3677	0.0916	0.003
Mof_H 	H 	0.7493	0.3478	0.0824	0.023
Mof_C 	C 	0.752	0.2758	0.02992	-0.102
Mof_H 	H 	0.7663	0.2734	0.0501	0.034
Mof_H 	H 	0.7415	0.2982	0.0304	0.171
Mof_H 	H 	0.735	0.3014	0.02	-0.142
Mof_C 	C 	0.8763	0.2503	0.9194	0.024
Mof_H 	H 	0.8609	0.2381	0.9326	0.022
Mof_O 	O 	0.32925	0.87889	0.03547	-0.489
Mof_O 	O 	0.29028	0.83934	0.03522	-0.485
Mof_C 	C 	0.30282	0.86558	0.04643	0.418
Mof_C 	C 	0.28569	0.88285	0.07456	-0.139
Mof_C 	C 	0.2586	0.8677	0.0916	0.002
Mof_H 	H 	0.2493	0.8478	0.0824	0.024
Mof_C 	C 	0.252	0.7758	0.02992	-0.102
Mof_H 	H 	0.2663	0.7734	0.0501	0.033
Mof_H 	H 	0.2415	0.7982	0.0304	0.171
Mof_H 	H 	0.235	0.8014	0.02	-0.143
Mof_C 	C 	0.3763	0.7503	0.9194	0.023
Mof_H 	H 	0.3609	0.7381	0.9326	0.022
Mof_O 	O 	0.32925	0.37889	0.53547	-0.486
Mof_O 	O 	0.29028	0.33934	0.53522	-0.48
Mof_C 	C 	0.30282	0.36558	0.54643	0.417
Mof_C 	C 	0.28569	0.38285	0.57456	-0.138
Mof_C 	C 	0.2586	0.3677	0.5916	0.003
Mof_H 	H 	0.2493	0.3478	0.5824	0.025
Mof_C 	C 	0.252	0.2758	0.52992	-0.029
Mof_H 	H 	0.2663	0.2734	0.5501	0.019
Mof_H 	H 	0.2415	0.2982	0.5304	0.027
Mof_H 	H 	0.235	0.3014	0.52	0.012
Mof_C 	C 	0.3763	0.2503	0.4194	0.022
Mof_H 	H 	0.3609	0.2381	0.4326	0.019
Mof_O 	O 	0.17075	0.12111	0.53547	-0.488
Mof_O 	O 	0.20972	0.16066	0.53522	-0.48
Mof_C 	C 	0.19718	0.13442	0.54643	0.418
Mof_C 	C 	0.21431	0.11715	0.57456	-0.14
Mof_C 	C 	0.2414	0.1323	0.5916	0.004
Mof_H 	H 	0.2507	0.1522	0.5824	0.025
Mof_C 	C 	0.248	0.2242	0.52992	-0.029
Mof_H 	H 	0.2337	0.2266	0.5501	0.019
Mof_H 	H 	0.2585	0.2018	0.5304	0.027
Mof_H 	H 	0.265	0.1986	0.52	0.012
Mof_C 	C 	0.1237	0.2497	0.4194	0.022
Mof_H 	H 	0.1391	0.2619	0.4326	0.019
Mof_O 	O 	0.17075	0.62111	0.03547	-0.491
Mof_O 	O 	0.20972	0.66066	0.03522	-0.485
Mof_C 	C 	0.19718	0.63442	0.04643	0.418
Mof_C 	C 	0.21431	0.61715	0.07456	-0.141
Mof_C 	C 	0.2414	0.6323	0.0916	0.003
Mof_H 	H 	0.2507	0.6522	0.0824	0.023
Mof_C 	C 	0.248	0.7242	0.02992	-0.102
Mof_H 	H 	0.2337	0.7266	0.0501	0.034
Mof_H 	H 	0.2585	0.7018	0.0304	0.171
Mof_H 	H 	0.265	0.6986	0.02	-0.143
Mof_C 	C 	0.1237	0.7497	0.9194	0.023
Mof_H 	H 	0.1391	0.7619	0.9326	0.022
Mof_O 	O 	0.67075	0.12111	0.03547	-0.492
Mof_O 	O 	0.70972	0.16066	0.03522	-0.485
Mof_C 	C 	0.69718	0.13442	0.04643	0.419
Mof_C 	C 	0.71431	0.11715	0.07456	-0.142
Mof_C 	C 	0.7414	0.1323	0.0916	0.004
Mof_H 	H 	0.7507	0.1522	0.0824	0.023
Mof_C 	C 	0.748	0.2242	0.02992	-0.102
Mof_H 	H 	0.7337	0.2266	0.0501	0.033
Mof_H 	H 	0.7585	0.2018	0.0304	0.171
Mof_H 	H 	0.765	0.1986	0.02	-0.143
Mof_C 	C 	0.6237	0.2497	0.9194	0.023
Mof_H 	H 	0.6391	0.2619	0.9326	0.022
Mof_O 	O 	0.67075	0.62111	0.53547	-0.486
Mof_O 	O 	0.70972	0.66066	0.53522	-0.48
Mof_C 	C 	0.69718	0.63442	0.54643	0.417
Mof_C 	C 	0.71431	0.61715	0.57456	-0.138
Mof_C 	C 	0.7414	0.6323	0.5916	0.002
Mof_H 	H 	0.7507	0.6522	0.5824	0.025
Mof_C 	C 	0.748	0.7242	0.52992	-0.03
Mof_H 	H 	0.7337	0.7266	0.5501	0.019
Mof_H 	H 	0.7585	0.7018	0.5304	0.029
Mof_H 	H 	0.765	0.6986	0.52	0.011
Mof_C 	C 	0.6237	0.7497	0.4194	0.022
Mof_H 	H 	0.6391	0.7619	0.4326	0.019
Mof_O 	O 	0.12111	0.53547	0.17075	-0.488
Mof_O 	O 	0.16066	0.53522	0.20972	-0.48
Mof_C 	C 	0.13442	0.54643	0.19718	0.418
Mof_C 	C 	0.11715	0.57456	0.21431	-0.14
Mof_C 	C 	0.1323	0.5916	0.2414	0.004
Mof_H 	H 	0.1522	0.5824	0.2507	0.025
Mof_C 	C 	0.2242	0.52992	0.248	-0.029
Mof_H 	H 	0.2266	0.5501	0.2337	0.019
Mof_H 	H 	0.2018	0.5304	0.2585	0.027
Mof_H 	H 	0.1986	0.52	0.265	0.012
Mof_C 	C 	0.2497	0.4194	0.1237	0.022
Mof_H 	H 	0.2619	0.4326	0.1391	0.019
Mof_O 	O 	0.12111	0.03547	0.67075	-0.492
Mof_O 	O 	0.16066	0.03522	0.70972	-0.485
Mof_C 	C 	0.13442	0.04643	0.69718	0.419
Mof_C 	C 	0.11715	0.07456	0.71431	-0.142
Mof_C 	C 	0.1323	0.0916	0.7414	0.004
Mof_H 	H 	0.1522	0.0824	0.7507	0.023
Mof_C 	C 	0.2242	0.02992	0.748	-0.102
Mof_H 	H 	0.2266	0.0501	0.7337	0.033
Mof_H 	H 	0.2018	0.0304	0.7585	0.171
Mof_H 	H 	0.1986	0.02	0.765	-0.143
Mof_C 	C 	0.2497	0.9194	0.6237	0.023
Mof_H 	H 	0.2619	0.9326	0.6391	0.022
Mof_O 	O 	0.62111	0.53547	0.67075	-0.486
Mof_O 	O 	0.66066	0.53522	0.70972	-0.48
Mof_C 	C 	0.63442	0.54643	0.69718	0.417
Mof_C 	C 	0.61715	0.57456	0.71431	-0.138
Mof_C 	C 	0.6323	0.5916	0.7414	0.002
Mof_H 	H 	0.6522	0.5824	0.7507	0.025
Mof_C 	C 	0.7242	0.52992	0.748	-0.03
Mof_H 	H 	0.7266	0.5501	0.7337	0.019
Mof_H 	H 	0.7018	0.5304	0.7585	0.029
Mof_H 	H 	0.6986	0.52	0.765	0.011
Mof_C 	C 	0.7497	0.4194	0.6237	0.022
Mof_H 	H 	0.7619	0.4326	0.6391	0.019
Mof_O 	O 	0.62111	0.03547	0.17075	-0.491
Mof_O 	O 	0.66066	0.03522	0.20972	-0.485
Mof_C 	C 	0.63442	0.04643	0.19718	0.418
Mof_C 	C 	0.61715	0.07456	0.21431	-0.141
Mof_C 	C 	0.6323	0.0916	0.2414	0.003
Mof_H 	H 	0.6522	0.0824	0.2507	0.023
Mof_C 	C 	0.7242	0.02992	0.248	-0.102
Mof_H 	H 	0.7266	0.0501	0.2337	0.034
Mof_H 	H 	0.7018	0.0304	0.2585	0.171
Mof_H 	H 	0.6986	0.02	0.265	-0.143
Mof_C 	C 	0.7497	0.9194	0.1237	0.023
Mof_H 	H 	0.7619	0.9326	0.1391	0.022
Mof_O 	O 	0.87889	0.53547	0.82925	-0.485
Mof_O 	O 	0.83934	0.53522	0.79028	-0.48
Mof_C 	C 	0.86558	0.54643	0.80282	0.417
Mof_C 	C 	0.88285	0.57456	0.78569	-0.136
Mof_C 	C 	0.8677	0.5916	0.7586	0.001
Mof_H 	H 	0.8478	0.5824	0.7493	0.026
Mof_C 	C 	0.7758	0.52992	0.752	-0.03
Mof_H 	H 	0.7734	0.5501	0.7663	0.019
Mof_H 	H 	0.7982	0.5304	0.7415	0.029
Mof_H 	H 	0.8014	0.52	0.735	0.011
Mof_C 	C 	0.7503	0.4194	0.8763	0.023
Mof_H 	H 	0.7381	0.4326	0.8609	0.019
Mof_O 	O 	0.87889	0.03547	0.32925	-0.489
Mof_O 	O 	0.83934	0.03522	0.29028	-0.485
Mof_C 	C 	0.86558	0.04643	0.30282	0.418
Mof_C 	C 	0.88285	0.07456	0.28569	-0.139
Mof_C 	C 	0.8677	0.0916	0.2586	0.002
Mof_H 	H 	0.8478	0.0824	0.2493	0.024
Mof_C 	C 	0.7758	0.02992	0.252	-0.102
Mof_H 	H 	0.7734	0.0501	0.2663	0.033
Mof_H 	H 	0.7982	0.0304	0.2415	0.171
Mof_H 	H 	0.8014	0.02	0.235	-0.143
Mof_C 	C 	0.7503	0.9194	0.3763	0.023
Mof_H 	H 	0.7381	0.9326	0.3609	0.022
Mof_O 	O 	0.37889	0.53547	0.32925	-0.486
Mof_O 	O 	0.33934	0.53522	0.29028	-0.48
Mof_C 	C 	0.36558	0.54643	0.30282	0.417
Mof_C 	C 	0.38285	0.57456	0.28569	-0.138
Mof_C 	C 	0.3677	0.5916	0.2586	0.003
Mof_H 	H 	0.3478	0.5824	0.2493	0.025
Mof_C 	C 	0.2758	0.52992	0.252	-0.029
Mof_H 	H 	0.2734	0.5501	0.2663	0.019
Mof_H 	H 	0.2982	0.5304	0.2415	0.027
Mof_H 	H 	0.3014	0.52	0.235	0.012
Mof_C 	C 	0.2503	0.4194	0.3763	0.022
Mof_H 	H 	0.2381	0.4326	0.3609	0.019
Mof_O 	O 	0.37889	0.03547	0.82925	-0.49
Mof_O 	O 	0.33934	0.03522	0.79028	-0.485
Mof_C 	C 	0.36558	0.04643	0.80282	0.418
Mof_C 	C 	0.38285	0.07456	0.78569	-0.14
Mof_C 	C 	0.3677	0.0916	0.7586	0.003
Mof_H 	H 	0.3478	0.0824	0.7493	0.023
Mof_C 	C 	0.2758	0.02992	0.752	-0.102
Mof_H 	H 	0.2734	0.0501	0.7663	0.034
Mof_H 	H 	0.2982	0.0304	0.7415	0.171
Mof_H 	H 	0.3014	0.02	0.735	-0.142
Mof_C 	C 	0.2503	0.9194	0.8763	0.024
Mof_H 	H 	0.2381	0.9326	0.8609	0.022
Mof_O 	O 	0.87889	0.46453	0.17075	-0.485
Mof_O 	O 	0.83934	0.46478	0.20972	-0.48
Mof_C 	C 	0.86558	0.45357	0.19718	0.417
Mof_C 	C 	0.88285	0.42544	0.21431	-0.137
Mof_C 	C 	0.8677	0.4084	0.2414	0.001
Mof_H 	H 	0.8478	0.4176	0.2507	0.026
Mof_C 	C 	0.7758	0.47008	0.248	-0.03
Mof_H 	H 	0.7734	0.4499	0.2337	0.018
Mof_H 	H 	0.7982	0.4696	0.2585	0.029
Mof_H 	H 	0.8014	0.48	0.265	0.01
Mof_C 	C 	0.7503	0.5806	0.1237	0.021
Mof_H 	H 	0.7381	0.5674	0.1391	0.019
Mof_O 	O 	0.87889	0.96453	0.67075	-0.478
Mof_O 	O 	0.83934	0.96478	0.70972	-0.474
Mof_C 	C 	0.86558	0.95357	0.69718	0.416
Mof_C 	C 	0.88285	0.92544	0.71431	-0.134
Mof_C 	C 	0.8677	0.9084	0.7414	-0.001
Mof_H 	H 	0.8478	0.9176	0.7507	0.025
Mof_C 	C 	0.7758	0.97008	0.748	-0.084
Mof_H 	H 	0.7734	0.9499	0.7337	0.029
Mof_H 	H 	0.7982	0.9696	0.7585	0.135
Mof_H 	H 	0.8014	0.98	0.765	-0.101
Mof_C 	C 	0.7503	0.0806	0.6237	0.022
Mof_H 	H 	0.7381	0.0674	0.6391	0.018
Mof_O 	O 	0.37889	0.46453	0.67075	-0.486
Mof_O 	O 	0.33934	0.46478	0.70972	-0.48
Mof_C 	C 	0.36558	0.45357	0.69718	0.417
Mof_C 	C 	0.38285	0.42544	0.71431	-0.138
Mof_C 	C 	0.3677	0.4084	0.7414	0.002
Mof_H 	H 	0.3478	0.4176	0.7507	0.025
Mof_C 	C 	0.2758	0.47008	0.748	-0.029
Mof_H 	H 	0.2734	0.4499	0.7337	0.018
Mof_H 	H 	0.2982	0.4696	0.7585	0.029
Mof_H 	H 	0.3014	0.48	0.765	0.01
Mof_C 	C 	0.2503	0.5806	0.6237	0.022
Mof_H 	H 	0.2381	0.5674	0.6391	0.019
Mof_O 	O 	0.37889	0.96453	0.17075	-0.48
Mof_O 	O 	0.33934	0.96478	0.20972	-0.475
Mof_C 	C 	0.36558	0.95357	0.19718	0.416
Mof_C 	C 	0.38285	0.92544	0.21431	-0.136
Mof_C 	C 	0.3677	0.9084	0.2414	0.001
Mof_H 	H 	0.3478	0.9176	0.2507	0.025
Mof_C 	C 	0.2758	0.97008	0.248	-0.083
Mof_H 	H 	0.2734	0.9499	0.2337	0.03
Mof_H 	H 	0.2982	0.9696	0.2585	0.133
Mof_H 	H 	0.3014	0.98	0.265	-0.099
Mof_C 	C 	0.2503	0.0806	0.1237	0.022
Mof_H 	H 	0.2381	0.0674	0.1391	0.018
Mof_O 	O 	0.12111	0.46453	0.82925	-0.487
Mof_O 	O 	0.16066	0.46478	0.79028	-0.48
Mof_C 	C 	0.13442	0.45357	0.80282	0.417
Mof_C 	C 	0.11715	0.42544	0.78569	-0.139
Mof_C 	C 	0.1323	0.4084	0.7586	0.003
Mof_H 	H 	0.1522	0.4176	0.7493	0.025
Mof_C 	C 	0.2242	0.47008	0.752	-0.029
Mof_H 	H 	0.2266	0.4499	0.7663	0.021
Mof_H 	H 	0.2018	0.4696	0.7415	0.027
Mof_H 	H 	0.1986	0.48	0.735	0.012
Mof_C 	C 	0.2497	0.5806	0.8763	0.024
Mof_H 	H 	0.2619	0.5674	0.8609	0.019
Mof_O 	O 	0.12111	0.96453	0.32925	-0.481
Mof_O 	O 	0.16066	0.96478	0.29028	-0.475
Mof_C 	C 	0.13442	0.95357	0.30282	0.417
Mof_C 	C 	0.11715	0.92544	0.28569	-0.137
Mof_C 	C 	0.1323	0.9084	0.2586	0.002
Mof_H 	H 	0.1522	0.9176	0.2493	0.024
Mof_C 	C 	0.2242	0.97008	0.252	-0.082
Mof_H 	H 	0.2266	0.9499	0.2663	0.032
Mof_H 	H 	0.2018	0.9696	0.2415	0.131
Mof_H 	H 	0.1986	0.98	0.235	-0.097
Mof_C 	C 	0.2497	0.0806	0.3763	0.022
Mof_H 	H 	0.2619	0.0674	0.3609	0.018
Mof_O 	O 	0.62111	0.46453	0.32925	-0.486
Mof_O 	O 	0.66066	0.46478	0.29028	-0.48
Mof_C 	C 	0.63442	0.45357	0.30282	0.417
Mof_C 	C 	0.61715	0.42544	0.28569	-0.138
Mof_C 	C 	0.6323	0.4084	0.2586	0.003
Mof_H 	H 	0.6522	0.4176	0.2493	0.025
Mof_C 	C 	0.7242	0.47008	0.252	-0.029
Mof_H 	H 	0.7266	0.4499	0.2663	0.02
Mof_H 	H 	0.7018	0.4696	0.2415	0.027
Mof_H 	H 	0.6986	0.48	0.235	0.012
Mof_C 	C 	0.7497	0.5806	0.3763	0.022
Mof_H 	H 	0.7619	0.5674	0.3609	0.019
Mof_O 	O 	0.62111	0.96453	0.82925	-0.479
Mof_O 	O 	0.66066	0.96478	0.79028	-0.475
Mof_C 	C 	0.63442	0.95357	0.80282	0.416
Mof_C 	C 	0.61715	0.92544	0.78569	-0.136
Mof_C 	C 	0.6323	0.9084	0.7586	0.001
Mof_H 	H 	0.6522	0.9176	0.7493	0.025
Mof_C 	C 	0.7242	0.97008	0.752	-0.083
Mof_H 	H 	0.7266	0.9499	0.7663	0.032
Mof_H 	H 	0.7018	0.9696	0.7415	0.132
Mof_H 	H 	0.6986	0.98	0.735	-0.098
Mof_C 	C 	0.7497	0.0806	0.8763	0.024
Mof_H 	H 	0.7619	0.0674	0.8609	0.019
Mof_O 	O 	0.53547	0.82925	0.87889	-0.485
Mof_O 	O 	0.53522	0.79028	0.83934	-0.48
Mof_C 	C 	0.54643	0.80282	0.86558	0.417
Mof_C 	C 	0.57456	0.78569	0.88285	-0.136
Mof_C 	C 	0.5916	0.7586	0.8677	0.001
Mof_H 	H 	0.5824	0.7493	0.8478	0.026
Mof_C 	C 	0.52992	0.752	0.7758	-0.03
Mof_H 	H 	0.5501	0.7663	0.7734	0.019
Mof_H 	H 	0.5304	0.7415	0.7982	0.029
Mof_H 	H 	0.52	0.735	0.8014	0.011
Mof_C 	C 	0.4194	0.8763	0.7503	0.023
Mof_H 	H 	0.4326	0.8609	0.7381	0.019
Mof_O 	O 	0.53547	0.32925	0.37889	-0.486
Mof_O 	O 	0.53522	0.29028	0.33934	-0.48
Mof_C 	C 	0.54643	0.30282	0.36558	0.417
Mof_C 	C 	0.57456	0.28569	0.38285	-0.138
Mof_C 	C 	0.5916	0.2586	0.3677	0.003
Mof_H 	H 	0.5824	0.2493	0.3478	0.025
Mof_C 	C 	0.52992	0.252	0.2758	-0.029
Mof_H 	H 	0.5501	0.2663	0.2734	0.019
Mof_H 	H 	0.5304	0.2415	0.2982	0.027
Mof_H 	H 	0.52	0.235	0.3014	0.012
Mof_C 	C 	0.4194	0.3763	0.2503	0.022
Mof_H 	H 	0.4326	0.3609	0.2381	0.019
Mof_O 	O 	0.03547	0.82925	0.37889	-0.49
Mof_O 	O 	0.03522	0.79028	0.33934	-0.485
Mof_C 	C 	0.04643	0.80282	0.36558	0.418
Mof_C 	C 	0.07456	0.78569	0.38285	-0.14
Mof_C 	C 	0.0916	0.7586	0.3677	0.003
Mof_H 	H 	0.0824	0.7493	0.3478	0.023
Mof_C 	C 	0.02992	0.752	0.2758	-0.102
Mof_H 	H 	0.0501	0.7663	0.2734	0.034
Mof_H 	H 	0.0304	0.7415	0.2982	0.171
Mof_H 	H 	0.02	0.735	0.3014	-0.142
Mof_C 	C 	0.9194	0.8763	0.2503	0.024
Mof_H 	H 	0.9326	0.8609	0.2381	0.022
Mof_O 	O 	0.03547	0.32925	0.87889	-0.489
Mof_O 	O 	0.03522	0.29028	0.83934	-0.485
Mof_C 	C 	0.04643	0.30282	0.86558	0.418
Mof_C 	C 	0.07456	0.28569	0.88285	-0.139
Mof_C 	C 	0.0916	0.2586	0.8677	0.002
Mof_H 	H 	0.0824	0.2493	0.8478	0.024
Mof_C 	C 	0.02992	0.252	0.7758	-0.102
Mof_H 	H 	0.0501	0.2663	0.7734	0.033
Mof_H 	H 	0.0304	0.2415	0.7982	0.171
Mof_H 	H 	0.02	0.235	0.8014	-0.143
Mof_C 	C 	0.9194	0.3763	0.7503	0.023
Mof_H 	H 	0.9326	0.3609	0.7381	0.022
Mof_O 	O 	0.53547	0.17075	0.12111	-0.488
Mof_O 	O 	0.53522	0.20972	0.16066	-0.48
Mof_C 	C 	0.54643	0.19718	0.13442	0.418
Mof_C 	C 	0.57456	0.21431	0.11715	-0.14
Mof_C 	C 	0.5916	0.2414	0.1323	0.004
Mof_H 	H 	0.5824	0.2507	0.1522	0.025
Mof_C 	C 	0.52992	0.248	0.2242	-0.029
Mof_H 	H 	0.5501	0.2337	0.2266	0.019
Mof_H 	H 	0.5304	0.2585	0.2018	0.027
Mof_H 	H 	0.52	0.265	0.1986	0.012
Mof_C 	C 	0.4194	0.1237	0.2497	0.022
Mof_H 	H 	0.4326	0.1391	0.2619	0.019
Mof_O 	O 	0.53547	0.67075	0.62111	-0.486
Mof_O 	O 	0.53522	0.70972	0.66066	-0.48
Mof_C 	C 	0.54643	0.69718	0.63442	0.417
Mof_C 	C 	0.57456	0.71431	0.61715	-0.138
Mof_C 	C 	0.5916	0.7414	0.6323	0.002
Mof_H 	H 	0.5824	0.7507	0.6522	0.025
Mof_C 	C 	0.52992	0.748	0.7242	-0.03
Mof_H 	H 	0.5501	0.7337	0.7266	0.019
Mof_H 	H 	0.5304	0.7585	0.7018	0.029
Mof_H 	H 	0.52	0.765	0.6986	0.011
Mof_C 	C 	0.4194	0.6237	0.7497	0.022
Mof_H 	H 	0.4326	0.6391	0.7619	0.019
Mof_O 	O 	0.03547	0.17075	0.62111	-0.491
Mof_O 	O 	0.03522	0.20972	0.66066	-0.485
Mof_C 	C 	0.04643	0.19718	0.63442	0.418
Mof_C 	C 	0.07456	0.21431	0.61715	-0.141
Mof_C 	C 	0.0916	0.2414	0.6323	0.003
Mof_H 	H 	0.0824	0.2507	0.6522	0.023
Mof_C 	C 	0.02992	0.248	0.7242	-0.102
Mof_H 	H 	0.0501	0.2337	0.7266	0.034
Mof_H 	H 	0.0304	0.2585	0.7018	0.171
Mof_H 	H 	0.02	0.265	0.6986	-0.143
Mof_C 	C 	0.9194	0.1237	0.7497	0.023
Mof_H 	H 	0.9326	0.1391	0.7619	0.022
Mof_O 	O 	0.03547	0.67075	0.12111	-0.492
Mof_O 	O 	0.03522	0.70972	0.16066	-0.485
Mof_C 	C 	0.04643	0.69718	0.13442	0.419
Mof_C 	C 	0.07456	0.71431	0.11715	-0.142
Mof_C 	C 	0.0916	0.7414	0.1323	0.004
Mof_H 	H 	0.0824	0.7507	0.1522	0.023
Mof_C 	C 	0.02992	0.748	0.2242	-0.102
Mof_H 	H 	0.0501	0.7337	0.2266	0.033
Mof_H 	H 	0.0304	0.7585	0.2018	0.171
Mof_H 	H 	0.02	0.765	0.1986	-0.143
Mof_C 	C 	0.9194	0.6237	0.2497	0.023
Mof_H 	H 	0.9326	0.6391	0.2619	0.022
Mof_O 	O 	0.46453	0.82925	0.12111	-0.487
Mof_O 	O 	0.46478	0.79028	0.16066	-0.48
Mof_C 	C 	0.45357	0.80282	0.13442	0.417
Mof_C 	C 	0.42544	0.78569	0.11715	-0.139
Mof_C 	C 	0.4084	0.7586	0.1323	0.003
Mof_H 	H 	0.4176	0.7493	0.1522	0.025
Mof_C 	C 	0.47008	0.752	0.2242	-0.029
Mof_H 	H 	0.4499	0.7663	0.2266	0.021
Mof_H 	H 	0.4696	0.7415	0.2018	0.027
Mof_H 	H 	0.48	0.735	0.1986	0.012
Mof_C 	C 	0.5806	0.8763	0.2497	0.024
Mof_H 	H 	0.5674	0.8609	0.2619	0.019
Mof_O 	O 	0.46453	0.32925	0.62111	-0.486
Mof_O 	O 	0.46478	0.29028	0.66066	-0.48
Mof_C 	C 	0.45357	0.30282	0.63442	0.417
Mof_C 	C 	0.42544	0.28569	0.61715	-0.138
Mof_C 	C 	0.4084	0.2586	0.6323	0.003
Mof_H 	H 	0.4176	0.2493	0.6522	0.025
Mof_C 	C 	0.47008	0.252	0.7242	-0.029
Mof_H 	H 	0.4499	0.2663	0.7266	0.02
Mof_H 	H 	0.4696	0.2415	0.7018	0.027
Mof_H 	H 	0.48	0.235	0.6986	0.012
Mof_C 	C 	0.5806	0.3763	0.7497	0.022
Mof_H 	H 	0.5674	0.3609	0.7619	0.019
Mof_O 	O 	0.96453	0.82925	0.62111	-0.479
Mof_O 	O 	0.96478	0.79028	0.66066	-0.475
Mof_C 	C 	0.95357	0.80282	0.63442	0.416
Mof_C 	C 	0.92544	0.78569	0.61715	-0.136
Mof_C 	C 	0.9084	0.7586	0.6323	0.001
Mof_H 	H 	0.9176	0.7493	0.6522	0.025
Mof_C 	C 	0.97008	0.752	0.7242	-0.083
Mof_H 	H 	0.9499	0.7663	0.7266	0.032
Mof_H 	H 	0.9696	0.7415	0.7018	0.132
Mof_H 	H 	0.98	0.735	0.6986	-0.098
Mof_C 	C 	0.0806	0.8763	0.7497	0.024
Mof_H 	H 	0.0674	0.8609	0.7619	0.019
Mof_O 	O 	0.96453	0.32925	0.12111	-0.481
Mof_O 	O 	0.96478	0.29028	0.16066	-0.475
Mof_C 	C 	0.95357	0.30282	0.13442	0.417
Mof_C 	C 	0.92544	0.28569	0.11715	-0.137
Mof_C 	C 	0.9084	0.2586	0.1323	0.002
Mof_H 	H 	0.9176	0.2493	0.1522	0.024
Mof_C 	C 	0.97008	0.252	0.2242	-0.082
Mof_H 	H 	0.9499	0.2663	0.2266	0.032
Mof_H 	H 	0.9696	0.2415	0.2018	0.131
Mof_H 	H 	0.98	0.235	0.1986	-0.097
Mof_C 	C 	0.0806	0.3763	0.2497	0.022
Mof_H 	H 	0.0674	0.3609	0.2619	0.018
Mof_O 	O 	0.46453	0.17075	0.87889	-0.485
Mof_O 	O 	0.46478	0.20972	0.83934	-0.48
Mof_C 	C 	0.45357	0.19718	0.86558	0.417
Mof_C 	C 	0.42544	0.21431	0.88285	-0.137
Mof_C 	C 	0.4084	0.2414	0.8677	0.001
Mof_H 	H 	0.4176	0.2507	0.8478	0.026
Mof_C 	C 	0.47008	0.248	0.7758	-0.03
Mof_H 	H 	0.4499	0.2337	0.7734	0.018
Mof_H 	H 	0.4696	0.2585	0.7982	0.029
Mof_H 	H 	0.48	0.265	0.8014	0.01
Mof_C 	C 	0.5806	0.1237	0.7503	0.021
Mof_H 	H 	0.5674	0.1391	0.7381	0.019
Mof_O 	O 	0.46453	0.67075	0.37889	-0.486
Mof_O 	O 	0.46478	0.70972	0.33934	-0.48
Mof_C 	C 	0.45357	0.69718	0.36558	0.417
Mof_C 	C 	0.42544	0.71431	0.38285	-0.138
Mof_C 	C 	0.4084	0.7414	0.3677	0.002
Mof_H 	H 	0.4176	0.7507	0.3478	0.025
Mof_C 	C 	0.47008	0.748	0.2758	-0.029
Mof_H 	H 	0.4499	0.7337	0.2734	0.018
Mof_H 	H 	0.4696	0.7585	0.2982	0.029
Mof_H 	H 	0.48	0.765	0.3014	0.01
Mof_C 	C 	0.5806	0.6237	0.2503	0.022
Mof_H 	H 	0.5674	0.6391	0.2381	0.019
Mof_O 	O 	0.96453	0.17075	0.37889	-0.48
Mof_O 	O 	0.96478	0.20972	0.33934	-0.475
Mof_C 	C 	0.95357	0.19718	0.36558	0.416
Mof_C 	C 	0.92544	0.21431	0.38285	-0.136
Mof_C 	C 	0.9084	0.2414	0.3677	0.001
Mof_H 	H 	0.9176	0.2507	0.3478	0.025
Mof_C 	C 	0.97008	0.248	0.2758	-0.083
Mof_H 	H 	0.9499	0.2337	0.2734	0.03
Mof_H 	H 	0.9696	0.2585	0.2982	0.133
Mof_H 	H 	0.98	0.265	0.3014	-0.099
Mof_C 	C 	0.0806	0.1237	0.2503	0.022
Mof_H 	H 	0.0674	0.1391	0.2381	0.018
Mof_O 	O 	0.96453	0.67075	0.87889	-0.478
Mof_O 	O 	0.96478	0.70972	0.83934	-0.474
Mof_C 	C 	0.95357	0.69718	0.86558	0.416
Mof_C 	C 	0.92544	0.71431	0.88285	-0.134
Mof_C 	C 	0.9084	0.7414	0.8677	-0.001
Mof_H 	H 	0.9176	0.7507	0.8478	0.025
Mof_C 	C 	0.97008	0.748	0.7758	-0.084
Mof_H 	H 	0.9499	0.7337	0.7734	0.029
Mof_H 	H 	0.9696	0.7585	0.7982	0.135
Mof_H 	H 	0.98	0.765	0.8014	-0.101
Mof_C 	C 	0.0806	0.6237	0.7503	0.022
Mof_H 	H 	0.0674	0.6391	0.7381	0.018
Mof_Zn	Zn	0.86079	0.13921	0.5	1.196
Mof_Zn	Zn	0.80872	0.19128	0.5	1.222
Mof_N 	N 	0.77241	0.22759	0.5	-0.193
Mof_Zn	Zn	0.86079	0.63921	-0	1.192
Mof_Zn	Zn	0.80872	0.69128	-0	1.217
Mof_N 	N 	0.77241	0.72759	-0	-0.197
Mof_Zn	Zn	0.36079	0.13921	-0	1.191
Mof_Zn	Zn	0.30872	0.19128	-0	1.217
Mof_N 	N 	0.27241	0.22759	-0	-0.197
Mof_Zn	Zn	0.36079	0.63921	0.5	1.196
Mof_Zn	Zn	0.30872	0.69128	0.5	1.222
Mof_N 	N 	0.27241	0.72759	0.5	-0.193
Mof_Zn	Zn	0.13921	0.86079	0.5	1.196
Mof_Zn	Zn	0.19128	0.80872	0.5	1.222
Mof_N 	N 	0.22759	0.77241	0.5	-0.193
Mof_Zn	Zn	0.13921	0.36079	-0	1.191
Mof_Zn	Zn	0.19128	0.30872	-0	1.217
Mof_N 	N 	0.22759	0.27241	-0	-0.197
Mof_Zn	Zn	0.63921	0.86079	-0	1.192
Mof_Zn	Zn	0.69128	0.80872	-0	1.217
Mof_N 	N 	0.72759	0.77241	-0	-0.197
Mof_Zn	Zn	0.63921	0.36079	0.5	1.196
Mof_Zn	Zn	0.69128	0.30872	0.5	1.222
Mof_N 	N 	0.72759	0.27241	0.5	-0.193
Mof_Zn	Zn	0.13921	0.13921	0.5	1.195
Mof_Zn	Zn	0.19128	0.19128	0.5	1.222
Mof_N 	N 	0.22759	0.22759	0.5	-0.193
Mof_Zn	Zn	0.13921	0.63921	-0	1.191
Mof_Zn	Zn	0.19128	0.69128	-0	1.217
Mof_N 	N 	0.22759	0.72759	-0	-0.197
Mof_Zn	Zn	0.63921	0.13921	-0	1.191
Mof_Zn	Zn	0.69128	0.19128	-0	1.217
Mof_N 	N 	0.72759	0.22759	-0	-0.197
Mof_Zn	Zn	0.63921	0.63921	0.5	1.196
Mof_Zn	Zn	0.69128	0.69128	0.5	1.222
Mof_N 	N 	0.72759	0.72759	0.5	-0.193
Mof_Zn	Zn	0.86079	0.86079	0.5	1.197
Mof_Zn	Zn	0.80872	0.80872	0.5	1.222
Mof_N 	N 	0.77241	0.77241	0.5	-0.193
Mof_Zn	Zn	0.86079	0.36079	-0	1.192
Mof_Zn	Zn	0.80872	0.30872	-0	1.217
Mof_N 	N 	0.77241	0.27241	-0	-0.197
Mof_Zn	Zn	0.36079	0.86079	-0	1.192
Mof_Zn	Zn	0.30872	0.80872	-0	1.217
Mof_N 	N 	0.27241	0.77241	-0	-0.197
Mof_Zn	Zn	0.36079	0.36079	0.5	1.196
Mof_Zn	Zn	0.30872	0.30872	0.5	1.222
Mof_N 	N 	0.27241	0.27241	0.5	-0.193
Mof_Zn	Zn	0.5	0.86079	0.13921	1.196
Mof_Zn	Zn	0.5	0.80872	0.19128	1.222
Mof_N 	N 	0.5	0.77241	0.22759	-0.193
Mof_Zn	Zn	0.5	0.36079	0.63921	1.196
Mof_Zn	Zn	0.5	0.30872	0.69128	1.222
Mof_N 	N 	0.5	0.27241	0.72759	-0.193
Mof_Zn	Zn	8.74031e-33	0.86079	0.63921	1.192
Mof_Zn	Zn	8.93554e-33	0.80872	0.69128	1.217
Mof_N 	N 	2.72803e-33	0.77241	0.72759	-0.197
Mof_Zn	Zn	-2.64988e-33	0.36079	0.13921	1.191
Mof_Zn	Zn	-8.6873e-34	0.30872	0.19128	1.217
Mof_N 	N 	-7.32589e-34	0.27241	0.22759	-0.197
Mof_Zn	Zn	0.5	0.13921	0.86079	1.196
Mof_Zn	Zn	0.5	0.19128	0.80872	1.222
Mof_N 	N 	0.5	0.22759	0.77241	-0.193
Mof_Zn	Zn	0.5	0.63921	0.36079	1.196
Mof_Zn	Zn	0.5	0.69128	0.30872	1.222
Mof_N 	N 	0.5	0.72759	0.27241	-0.193
Mof_Zn	Zn	-1.81908e-33	0.13921	0.36079	1.191
Mof_Zn	Zn	-2.01431e-33	0.19128	0.30872	1.217
Mof_N 	N 	1.02137e-33	0.22759	0.27241	-0.197
Mof_Zn	Zn	3.22745e-33	0.63921	0.86079	1.192
Mof_Zn	Zn	9.37587e-33	0.69128	0.80872	1.217
Mof_N 	N 	2.89607e-33	0.72759	0.77241	-0.197
Mof_Zn	Zn	0.5	0.13921	0.13921	1.195
Mof_Zn	Zn	0.5	0.19128	0.19128	1.222
Mof_N 	N 	0.5	0.22759	0.22759	-0.193
Mof_Zn	Zn	0.5	0.63921	0.63921	1.196
Mof_Zn	Zn	0.5	0.69128	0.69128	1.222
Mof_N 	N 	0.5	0.72759	0.72759	-0.193
Mof_Zn	Zn	-1.02907e-32	0.13921	0.63921	1.191
Mof_Zn	Zn	-3.75177e-33	0.19128	0.69128	1.217
Mof_N 	N 	-3.61563e-33	0.22759	0.72759	-0.197
Mof_Zn	Zn	-5.82171e-33	0.63921	0.13921	1.191
Mof_Zn	Zn	-8.6873e-34	0.69128	0.19128	1.217
Mof_N 	N 	-7.32589e-34	0.72759	0.22759	-0.197
Mof_Zn	Zn	0.5	0.86079	0.86079	1.197
Mof_Zn	Zn	0.5	0.80872	0.80872	1.222
Mof_N 	N 	0.5	0.77241	0.77241	-0.193
Mof_Zn	Zn	0.5	0.36079	0.36079	1.196
Mof_Zn	Zn	0.5	0.30872	0.30872	1.222
Mof_N 	N 	0.5	0.27241	0.27241	-0.193
Mof_Zn	Zn	-8.16274e-33	0.86079	0.36079	1.192
Mof_Zn	Zn	1.38448e-32	0.80872	0.30872	1.217
Mof_N 	N 	-5.32229e-33	0.77241	0.27241	-0.197
Mof_Zn	Zn	-9.45987e-33	0.36079	0.86079	1.192
Mof_Zn	Zn	1.57195e-32	0.30872	0.80872	1.217
Mof_N 	N 	-3.44759e-33	0.27241	0.77241	-0.197
Mof_Zn	Zn	0.13921	0.5	0.86079	1.196
Mof_Zn	Zn	0.19128	0.5	0.80872	1.222
Mof_N 	N 	0.22759	0.5	0.77241	-0.193
Mof_Zn	Zn	0.13921	0	0.36079	1.191
Mof_Zn	Zn	0.19128	0	0.30872	1.217
Mof_N 	N 	0.22759	0	0.27241	-0.197
Mof_Zn	Zn	0.63921	0.5	0.36079	1.196
Mof_Zn	Zn	0.69128	0.5	0.30872	1.222
Mof_N 	N 	0.72759	0.5	0.27241	-0.193
Mof_Zn	Zn	0.63921	0	0.86079	1.192
Mof_Zn	Zn	0.69128	6.34366e-33	0.80872	1.217
Mof_N 	N 	0.72759	-6.34366e-33	0.77241	-0.197
Mof_Zn	Zn	0.86079	0.5	0.13921	1.196
Mof_Zn	Zn	0.80872	0.5	0.19128	1.222
Mof_N 	N 	0.77241	0.5	0.22759	-0.193
Mof_Zn	Zn	0.86079	0	0.63921	1.192
Mof_Zn	Zn	0.80872	0	0.69128	1.217
Mof_N 	N 	0.77241	0	0.72759	-0.197
Mof_Zn	Zn	0.36079	0.5	0.63921	1.196
Mof_Zn	Zn	0.30872	0.5	0.69128	1.222
Mof_N 	N 	0.27241	0.5	0.72759	-0.193
Mof_Zn	Zn	0.36079	0	0.13921	1.191
Mof_Zn	Zn	0.30872	1.58591e-33	0.19128	1.217
Mof_N 	N 	0.27241	1.58591e-33	0.22759	-0.197
Mof_Zn	Zn	0.13921	0.5	0.13921	1.195
Mof_Zn	Zn	0.19128	0.5	0.19128	1.222
Mof_N 	N 	0.22759	0.5	0.22759	-0.193
Mof_Zn	Zn	0.13921	0	0.63921	1.191
Mof_Zn	Zn	0.19128	0	0.69128	1.217
Mof_N 	N 	0.22759	0	0.72759	-0.197
Mof_Zn	Zn	0.63921	0.5	0.63921	1.196
Mof_Zn	Zn	0.69128	0.5	0.69128	1.222
Mof_N 	N 	0.72759	0.5	0.72759	-0.193
Mof_Zn	Zn	0.63921	0	0.13921	1.191
Mof_Zn	Zn	0.69128	1.58591e-33	0.19128	1.217
Mof_N 	N 	0.72759	1.58591e-33	0.22759	-0.197
Mof_Zn	Zn	0.86079	0.5	0.86079	1.197
Mof_Zn	Zn	0.80872	0.5	0.80872	1.222
Mof_N 	N 	0.77241	0.5	0.77241	-0.193
Mof_Zn	Zn	0.86079	0	0.36079	1.192
Mof_Zn	Zn	0.80872	0	0.30872	1.217
Mof_N 	N 	0.77241	0	0.27241	-0.197
Mof_Zn	Zn	0.36079	0.5	0.36079	1.196
Mof_Zn	Zn	0.30872	0.5	0.30872	1.222
Mof_N 	N 	0.27241	0.5	0.27241	-0.193
Mof_Zn	Zn	0.36079	0	0.86079	1.192
Mof_Zn	Zn	0.30872	6.34366e-33	0.80872	1.217
Mof_N 	N 	0.27241	-6.34366e-33	0.77241	-0.197
Mof_C 	C 	0.90995	0.19979	0.40995	0.079
Mof_H 	H 	0.9182	0.1791	0.4182	0.026
Mof_C 	C 	0.8799	0.2548	0.3799	-0.016
Mof_H 	H 	0.8689	0.2728	0.3689	0.025
Mof_C 	C 	0.90995	0.69979	0.90995	0.078
Mof_H 	H 	0.9182	0.6791	0.9182	0.028
Mof_C 	C 	0.8799	0.7548	0.8799	-0.02
Mof_H 	H 	0.8689	0.7728	0.8689	0.027
Mof_C 	C 	0.40995	0.69979	0.40995	0.08
Mof_H 	H 	0.4182	0.6791	0.4182	0.024
Mof_C 	C 	0.3799	0.7548	0.3799	-0.013
Mof_H 	H 	0.3689	0.7728	0.3689	0.024
Mof_C 	C 	0.09005	0.80021	0.40995	0.08
Mof_H 	H 	0.0818	0.8209	0.4182	0.023
Mof_C 	C 	0.1201	0.7452	0.3799	-0.011
Mof_H 	H 	0.1311	0.7272	0.3689	0.023
Mof_C 	C 	0.09005	0.30021	0.90995	0.08
Mof_H 	H 	0.0818	0.3209	0.9182	0.024
Mof_C 	C 	0.1201	0.2452	0.8799	-0.014
Mof_H 	H 	0.1311	0.2272	0.8689	0.024
Mof_C 	C 	0.09005	0.19979	0.59005	0.081
Mof_H 	H 	0.0818	0.1791	0.5818	0.023
Mof_C 	C 	0.1201	0.2548	0.6201	-0.011
Mof_H 	H 	0.1311	0.2728	0.6311	0.023
Mof_C 	C 	0.09005	0.69979	0.09005	0.082
Mof_H 	H 	0.0818	0.6791	0.0818	0.021
Mof_C 	C 	0.1201	0.7548	0.1201	-0.01
Mof_H 	H 	0.1311	0.7728	0.1311	0.022
Mof_C 	C 	0.90995	0.80021	0.59005	0.079
Mof_H 	H 	0.9182	0.8209	0.5818	0.026
Mof_C 	C 	0.8799	0.7452	0.6201	-0.016
Mof_H 	H 	0.8689	0.7272	0.6311	0.025
Mof_C 	C 	0.90995	0.30021	0.09005	0.08
Mof_H 	H 	0.9182	0.3209	0.0818	0.024
Mof_C 	C 	0.8799	0.2452	0.1201	-0.014
Mof_H 	H 	0.8689	0.2272	0.1311	0.024
Mof_C 	C 	0.40995	0.80021	0.09005	0.08
Mof_H 	H 	0.4182	0.8209	0.0818	0.023
Mof_C 	C 	0.3799	0.7452	0.1201	-0.011
Mof_H 	H 	0.3689	0.7272	0.1311	0.023
Mof_C 	C 	0.40995	0.90995	0.19979	0.079
Mof_H 	H 	0.4182	0.9182	0.1791	0.026
Mof_C 	C 	0.3799	0.8799	0.2548	-0.016
Mof_H 	H 	0.3689	0.8689	0.2728	0.025
Mof_C 	C 	0.40995	0.40995	0.69979	0.08
Mof_H 	H 	0.4182	0.4182	0.6791	0.024
Mof_C 	C 	0.3799	0.3799	0.7548	-0.013
Mof_H 	H 	0.3689	0.3689	0.7728	0.024
Mof_C 	C 	0.40995	0.09005	0.80021	0.08
Mof_H 	H 	0.4182	0.0818	0.8209	0.023
Mof_C 	C 	0.3799	0.1201	0.7452	-0.011
Mof_H 	H 	0.3689	0.1311	0.7272	0.023
Mof_C 	C 	0.40995	0.59005	0.30021	0.08
Mof_H 	H 	0.4182	0.5818	0.3209	0.024
Mof_C 	C 	0.3799	0.6201	0.2452	-0.012
Mof_H 	H 	0.3689	0.6311	0.2272	0.023
Mof_C 	C 	0.59005	0.09005	0.19979	0.081
Mof_H 	H 	0.5818	0.0818	0.1791	0.023
Mof_C 	C 	0.6201	0.1201	0.2548	-0.011
Mof_H 	H 	0.6311	0.1311	0.2728	0.023
Mof_C 	C 	0.59005	0.59005	0.69979	0.08
Mof_H 	H 	0.5818	0.5818	0.6791	0.024
Mof_C 	C 	0.6201	0.6201	0.7548	-0.013
Mof_H 	H 	0.6311	0.6311	0.7728	0.024
Mof_C 	C 	0.09005	0.09005	0.69979	0.082
Mof_H 	H 	0.0818	0.0818	0.6791	0.021
Mof_C 	C 	0.1201	0.1201	0.7548	-0.01
Mof_H 	H 	0.1311	0.1311	0.7728	0.022
Mof_C 	C 	0.59005	0.90995	0.80021	0.079
Mof_H 	H 	0.5818	0.9182	0.8209	0.026
Mof_C 	C 	0.6201	0.8799	0.7452	-0.016
Mof_H 	H 	0.6311	0.8689	0.7272	0.025
Mof_C 	C 	0.59005	0.40995	0.30021	0.08
Mof_H 	H 	0.5818	0.4182	0.3209	0.024
Mof_C 	C 	0.6201	0.3799	0.2452	-0.012
Mof_H 	H 	0.6311	0.3689	0.2272	0.023
Mof_C 	C 	0.09005	0.40995	0.80021	0.08
Mof_H 	H 	0.0818	0.4182	0.8209	0.023
Mof_C 	C 	0.1201	0.3799	0.7452	-0.011
Mof_H 	H 	0.1311	0.3689	0.7272	0.023
Mof_C 	C 	0.19979	0.40995	0.90995	0.079
Mof_H 	H 	0.1791	0.4182	0.9182	0.026
Mof_C 	C 	0.2548	0.3799	0.8799	-0.016
Mof_H 	H 	0.2728	0.3689	0.8689	0.025
Mof_C 	C 	0.69979	0.40995	0.40995	0.08
Mof_H 	H 	0.6791	0.4182	0.4182	0.024
Mof_C 	C 	0.7548	0.3799	0.3799	-0.013
Mof_H 	H 	0.7728	0.3689	0.3689	0.024
Mof_C 	C 	0.80021	0.40995	0.09005	0.08
Mof_H 	H 	0.8209	0.4182	0.0818	0.023
Mof_C 	C 	0.7452	0.3799	0.1201	-0.011
Mof_H 	H 	0.7272	0.3689	0.1311	0.023
Mof_C 	C 	0.30021	0.40995	0.59005	0.08
Mof_H 	H 	0.3209	0.4182	0.5818	0.024
Mof_C 	C 	0.2452	0.3799	0.6201	-0.012
Mof_H 	H 	0.2272	0.3689	0.6311	0.023
Mof_C 	C 	0.19979	0.59005	0.09005	0.081
Mof_H 	H 	0.1791	0.5818	0.0818	0.023
Mof_C 	C 	0.2548	0.6201	0.1201	-0.011
Mof_H 	H 	0.2728	0.6311	0.1311	0.023
Mof_C 	C 	0.69979	0.59005	0.59005	0.08
Mof_H 	H 	0.6791	0.5818	0.5818	0.024
Mof_C 	C 	0.7548	0.6201	0.6201	-0.013
Mof_H 	H 	0.7728	0.6311	0.6311	0.024
Mof_C 	C 	0.69979	0.09005	0.09005	0.082
Mof_H 	H 	0.6791	0.0818	0.0818	0.021
Mof_C 	C 	0.7548	0.1201	0.1201	-0.01
Mof_H 	H 	0.7728	0.1311	0.1311	0.022
Mof_C 	C 	0.80021	0.59005	0.90995	0.079
Mof_H 	H 	0.8209	0.5818	0.9182	0.026
Mof_C 	C 	0.7452	0.6201	0.8799	-0.016
Mof_H 	H 	0.7272	0.6311	0.8689	0.025
Mof_C 	C 	0.80021	0.09005	0.40995	0.08
Mof_H 	H 	0.8209	0.0818	0.4182	0.023
Mof_C 	C 	0.7452	0.1201	0.3799	-0.011
Mof_H 	H 	0.7272	0.1311	0.3689	0.023
Mof_C 	C 	0.30021	0.59005	0.40995	0.08
Mof_H 	H 	0.3209	0.5818	0.4182	0.024
Mof_C 	C 	0.2452	0.6201	0.3799	-0.012
Mof_H 	H 	0.2272	0.6311	0.3689	0.023
Mof_C 	C 	0.19979	0.90995	0.59005	0.079
Mof_H 	H 	0.1791	0.9182	0.5818	0.026
Mof_C 	C 	0.2548	0.8799	0.6201	-0.016
Mof_H 	H 	0.2728	0.8689	0.6311	0.025
Mof_C 	C 	0.19979	0.40995	0.09005	0.081
Mof_H 	H 	0.1791	0.4182	0.0818	0.023
Mof_C 	C 	0.2548	0.3799	0.1201	-0.011
Mof_H 	H 	0.2728	0.3689	0.1311	0.023
Mof_C 	C 	0.69979	0.90995	0.09005	0.08
Mof_H 	H 	0.6791	0.9182	0.0818	0.024
Mof_C 	C 	0.7548	0.8799	0.1201	-0.015
Mof_H 	H 	0.7728	0.8689	0.1311	0.024
Mof_C 	C 	0.80021	0.09005	0.59005	0.08
Mof_H 	H 	0.8209	0.0818	0.5818	0.023
Mof_C 	C 	0.7452	0.1201	0.6201	-0.011
Mof_H 	H 	0.7272	0.1311	0.6311	0.023
Mof_C 	C 	0.30021	0.09005	0.09005	0.082
Mof_H 	H 	0.3209	0.0818	0.0818	0.021
Mof_C 	C 	0.2452	0.1201	0.1201	-0.009
Mof_H 	H 	0.2272	0.1311	0.1311	0.022
Mof_C 	C 	0.19979	0.09005	0.40995	0.081
Mof_H 	H 	0.1791	0.0818	0.4182	0.023
Mof_C 	C 	0.2548	0.1201	0.3799	-0.011
Mof_H 	H 	0.2728	0.1311	0.3689	0.023
Mof_C 	C 	0.69979	0.09005	0.90995	0.08
Mof_H 	H 	0.6791	0.0818	0.9182	0.024
Mof_C 	C 	0.7548	0.1201	0.8799	-0.015
Mof_H 	H 	0.7728	0.1311	0.8689	0.024
Mof_C 	C 	0.80021	0.90995	0.40995	0.079
Mof_H 	H 	0.8209	0.9182	0.4182	0.026
Mof_C 	C 	0.7452	0.8799	0.3799	-0.016
Mof_H 	H 	0.7272	0.8689	0.3689	0.025
Mof_C 	C 	0.30021	0.90995	0.90995	0.078
Mof_H 	H 	0.3209	0.9182	0.9182	0.027
Mof_C 	C 	0.2452	0.8799	0.8799	-0.019
Mof_H 	H 	0.2272	0.8689	0.8689	0.026
Mof_C 	C 	0.30021	0.40995	0.40995	0.08
Mof_H 	H 	0.3209	0.4182	0.4182	0.024
Mof_C 	C 	0.2452	0.3799	0.3799	-0.012
Mof_H 	H 	0.2272	0.3689	0.3689	0.023
Mof_C 	C 	0.90995	0.40995	0.80021	0.079
Mof_H 	H 	0.9182	0.4182	0.8209	0.026
Mof_C 	C 	0.8799	0.3799	0.7452	-0.016
Mof_H 	H 	0.8689	0.3689	0.7272	0.025
Mof_C 	C 	0.90995	0.90995	0.30021	0.078
Mof_H 	H 	0.9182	0.9182	0.3209	0.027
Mof_C 	C 	0.8799	0.8799	0.2452	-0.019
Mof_H 	H 	0.8689	0.8689	0.2272	0.026
Mof_C 	C 	0.40995	0.40995	0.30021	0.08
Mof_H 	H 	0.4182	0.4182	0.3209	0.024
Mof_C 	C 	0.3799	0.3799	0.2452	-0.012
Mof_H 	H 	0.3689	0.3689	0.2272	0.023
Mof_C 	C 	0.09005	0.40995	0.19979	0.081
Mof_H 	H 	0.0818	0.4182	0.1791	0.023
Mof_C 	C 	0.1201	0.3799	0.2548	-0.011
Mof_H 	H 	0.1311	0.3689	0.2728	0.023
Mof_C 	C 	0.09005	0.90995	0.69979	0.08
Mof_H 	H 	0.0818	0.9182	0.6791	0.024
Mof_C 	C 	0.1201	0.8799	0.7548	-0.015
Mof_H 	H 	0.1311	0.8689	0.7728	0.024
Mof_C 	C 	0.09005	0.59005	0.80021	0.08
Mof_H 	H 	0.0818	0.5818	0.8209	0.023
Mof_C 	C 	0.1201	0.6201	0.7452	-0.011
Mof_H 	H 	0.1311	0.6311	0.7272	0.023
Mof_C 	C 	0.09005	0.09005	0.30021	0.082
Mof_H 	H 	0.0818	0.0818	0.3209	0.021
Mof_C 	C 	0.1201	0.1201	0.2452	-0.009
Mof_H 	H 	0.1311	0.1311	0.2272	0.022
Mof_C 	C 	0.90995	0.59005	0.19979	0.079
Mof_H 	H 	0.9182	0.5818	0.1791	0.026
Mof_C 	C 	0.8799	0.6201	0.2548	-0.016
Mof_H 	H 	0.8689	0.6311	0.2728	0.025
Mof_C 	C 	0.90995	0.09005	0.69979	0.08
Mof_H 	H 	0.9182	0.0818	0.6791	0.024
Mof_C 	C 	0.8799	0.1201	0.7548	-0.015
Mof_H 	H 	0.8689	0.1311	0.7728	0.024
Mof_C 	C 	0.40995	0.09005	0.19979	0.081
Mof_H 	H 	0.4182	0.0818	0.1791	0.023
Mof_C 	C 	0.3799	0.1201	0.2548	-0.011
Mof_H 	H 	0.3689	0.1311	0.2728	0.023
Mof_C 	C 	0.40995	0.19979	0.09005	0.081
Mof_H 	H 	0.4182	0.1791	0.0818	0.023
Mof_C 	C 	0.3799	0.2548	0.1201	-0.011
Mof_H 	H 	0.3689	0.2728	0.1311	0.023
Mof_C 	C 	0.40995	0.69979	0.59005	0.08
Mof_H 	H 	0.4182	0.6791	0.5818	0.024
Mof_C 	C 	0.3799	0.7548	0.6201	-0.013
Mof_H 	H 	0.3689	0.7728	0.6311	0.024
Mof_C 	C 	0.40995	0.80021	0.90995	0.079
Mof_H 	H 	0.4182	0.8209	0.9182	0.026
Mof_C 	C 	0.3799	0.7452	0.8799	-0.016
Mof_H 	H 	0.3689	0.7272	0.8689	0.025
Mof_C 	C 	0.40995	0.30021	0.40995	0.08
Mof_H 	H 	0.4182	0.3209	0.4182	0.024
Mof_C 	C 	0.3799	0.2452	0.3799	-0.012
Mof_H 	H 	0.3689	0.2272	0.3689	0.023
Mof_C 	C 	0.59005	0.19979	0.90995	0.079
Mof_H 	H 	0.5818	0.1791	0.9182	0.026
Mof_C 	C 	0.6201	0.2548	0.8799	-0.016
Mof_H 	H 	0.6311	0.2728	0.8689	0.025
Mof_C 	C 	0.59005	0.69979	0.40995	0.08
Mof_H 	H 	0.5818	0.6791	0.4182	0.024
Mof_C 	C 	0.6201	0.7548	0.3799	-0.013
Mof_H 	H 	0.6311	0.7728	0.3689	0.024
Mof_C 	C 	0.09005	0.19979	0.40995	0.081
Mof_H 	H 	0.0818	0.1791	0.4182	0.023
Mof_C 	C 	0.1201	0.2548	0.3799	-0.011
Mof_H 	H 	0.1311	0.2728	0.3689	0.023
Mof_C 	C 	0.59005	0.80021	0.09005	0.08
Mof_H 	H 	0.5818	0.8209	0.0818	0.023
Mof_C 	C 	0.6201	0.7452	0.1201	-0.011
Mof_H 	H 	0.6311	0.7272	0.1311	0.023
Mof_C 	C 	0.59005	0.30021	0.59005	0.08
Mof_H 	H 	0.5818	0.3209	0.5818	0.024
Mof_C 	C 	0.6201	0.2452	0.6201	-0.012
Mof_H 	H 	0.6311	0.2272	0.6311	0.023
Mof_C 	C 	0.09005	0.30021	0.09005	0.082
Mof_H 	H 	0.0818	0.3209	0.0818	0.021
Mof_C 	C 	0.1201	0.2452	0.1201	-0.009
Mof_H 	H 	0.1311	0.2272	0.1311	0.022
Mof_C 	C 	0.09005	0.80021	0.59005	0.08
Mof_H 	H 	0.0818	0.8209	0.5818	0.023
Mof_C 	C 	0.1201	0.7452	0.6201	-0.011
Mof_H 	H 	0.1311	0.7272	0.6311	0.023
Mof_C 	C 	0.90995	0.19979	0.59005	0.079
Mof_H 	H 	0.9182	0.1791	0.5818	0.026
Mof_C 	C 	0.8799	0.2548	0.6201	-0.016
Mof_H 	H 	0.8689	0.2728	0.6311	0.025
Mof_C 	C 	0.90995	0.69979	0.09005	0.08
Mof_H 	H 	0.9182	0.6791	0.0818	0.024
Mof_C 	C 	0.8799	0.7548	0.1201	-0.015
Mof_H 	H 	0.8689	0.7728	0.1311	0.024
Mof_C 	C 	0.90995	0.80021	0.40995	0.079
Mof_H 	H 	0.9182	0.8209	0.4182	0.026
Mof_C 	C 	0.8799	0.7452	0.3799	-0.016
Mof_H 	H 	0.8689	0.7272	0.3689	0.025
Mof_C 	C 	0.90995	0.30021	0.90995	0.078
Mof_H 	H 	0.9182	0.3209	0.9182	0.027
Mof_C 	C 	0.8799	0.2452	0.8799	-0.019
Mof_H 	H 	0.8689	0.2272	0.8689	0.026
Mof_C 	C 	0.09005	0.69979	0.90995	0.08
Mof_H 	H 	0.0818	0.6791	0.9182	0.024
Mof_C 	C 	0.1201	0.7548	0.8799	-0.015
Mof_H 	H 	0.1311	0.7728	0.8689	0.024
Mof_C 	C 	0.59005	0.09005	0.80021	0.08
Mof_H 	H 	0.5818	0.0818	0.8209	0.023
Mof_C 	C 	0.6201	0.1201	0.7452	-0.011
Mof_H 	H 	0.6311	0.1311	0.7272	0.023
Mof_C 	C 	0.59005	0.59005	0.30021	0.08
Mof_H 	H 	0.5818	0.5818	0.3209	0.024
Mof_C 	C 	0.6201	0.6201	0.2452	-0.012
Mof_H 	H 	0.6311	0.6311	0.2272	0.023
Mof_C 	C 	0.59005	0.90995	0.19979	0.079
Mof_H 	H 	0.5818	0.9182	0.1791	0.026
Mof_C 	C 	0.6201	0.8799	0.2548	-0.016
Mof_H 	H 	0.6311	0.8689	0.2728	0.025
Mof_C 	C 	0.59005	0.40995	0.69979	0.08
Mof_H 	H 	0.5818	0.4182	0.6791	0.024
Mof_C 	C 	0.6201	0.3799	0.7548	-0.013
Mof_H 	H 	0.6311	0.3689	0.7728	0.024
Mof_C 	C 	0.40995	0.90995	0.80021	0.079
Mof_H 	H 	0.4182	0.9182	0.8209	0.026
Mof_C 	C 	0.3799	0.8799	0.7452	-0.016
Mof_H 	H 	0.3689	0.8689	0.7272	0.025
Mof_C 	C 	0.40995	0.59005	0.69979	0.08
Mof_H 	H 	0.4182	0.5818	0.6791	0.024
Mof_C 	C 	0.3799	0.6201	0.7548	-0.013
Mof_H 	H 	0.3689	0.6311	0.7728	0.024
Mof_C 	C 	0.80021	0.59005	0.09005	0.08
Mof_H 	H 	0.8209	0.5818	0.0818	0.023
Mof_C 	C 	0.7452	0.6201	0.1201	-0.011
Mof_H 	H 	0.7272	0.6311	0.1311	0.023
Mof_C 	C 	0.30021	0.59005	0.59005	0.08
Mof_H 	H 	0.3209	0.5818	0.5818	0.024
Mof_C 	C 	0.2452	0.6201	0.6201	-0.012
Mof_H 	H 	0.2272	0.6311	0.6311	0.023
Mof_C 	C 	0.19979	0.59005	0.90995	0.079
Mof_H 	H 	0.1791	0.5818	0.9182	0.026
Mof_C 	C 	0.2548	0.6201	0.8799	-0.016
Mof_H 	H 	0.2728	0.6311	0.8689	0.025
Mof_C 	C 	0.69979	0.59005	0.40995	0.08
Mof_H 	H 	0.6791	0.5818	0.4182	0.024
Mof_C 	C 	0.7548	0.6201	0.3799	-0.013
Mof_H 	H 	0.7728	0.6311	0.3689	0.024
Mof_C 	C 	0.80021	0.40995	0.90995	0.079
Mof_H 	H 	0.8209	0.4182	0.9182	0.026
Mof_C 	C 	0.7452	0.3799	0.8799	-0.016
Mof_H 	H 	0.7272	0.3689	0.8689	0.025
Mof_C 	C 	0.69979	0.40995	0.59005	0.08
Mof_H 	H 	0.6791	0.4182	0.5818	0.024
Mof_C 	C 	0.7548	0.3799	0.6201	-0.013
Mof_H 	H 	0.7728	0.3689	0.6311	0.024
Mof_C 	C 	0.30021	0.09005	0.90995	0.08
Mof_H 	H 	0.3209	0.0818	0.9182	0.024
Mof_C 	C 	0.2452	0.1201	0.8799	-0.014
Mof_H 	H 	0.2272	0.1311	0.8689	0.024
Mof_C 	C 	0.19979	0.90995	0.40995	0.079
Mof_H 	H 	0.1791	0.9182	0.4182	0.026
Mof_C 	C 	0.2548	0.8799	0.3799	-0.016
Mof_H 	H 	0.2728	0.8689	0.3689	0.025
Mof_C 	C 	0.69979	0.90995	0.90995	0.078
Mof_H 	H 	0.6791	0.9182	0.9182	0.028
Mof_C 	C 	0.7548	0.8799	0.8799	-0.02
Mof_H 	H 	0.7728	0.8689	0.8689	0.027
Mof_C 	C 	0.80021	0.90995	0.59005	0.079
Mof_H 	H 	0.8209	0.9182	0.5818	0.026
Mof_C 	C 	0.7452	0.8799	0.6201	-0.016
Mof_H 	H 	0.7272	0.8689	0.6311	0.025
Mof_C 	C 	0.30021	0.90995	0.09005	0.08
Mof_H 	H 	0.3209	0.9182	0.0818	0.024
Mof_C 	C 	0.2452	0.8799	0.1201	-0.014
Mof_H 	H 	0.2272	0.8689	0.1311	0.024
Mof_C 	C 	0.19979	0.09005	0.59005	0.081
Mof_H 	H 	0.1791	0.0818	0.5818	0.023
Mof_C 	C 	0.2548	0.1201	0.6201	-0.011
Mof_H 	H 	0.2728	0.1311	0.6311	0.023
Mof_C 	C 	0.09005	0.59005	0.19979	0.081
Mof_H 	H 	0.0818	0.5818	0.1791	0.023
Mof_C 	C 	0.1201	0.6201	0.2548	-0.011
Mof_H 	H 	0.1311	0.6311	0.2728	0.023
Mof_C 	C 	0.90995	0.59005	0.80021	0.079
Mof_H 	H 	0.9182	0.5818	0.8209	0.026
Mof_C 	C 	0.8799	0.6201	0.7452	-0.016
Mof_H 	H 	0.8689	0.6311	0.7272	0.025
Mof_C 	C 	0.90995	0.09005	0.30021	0.08
Mof_H 	H 	0.9182	0.0818	0.3209	0.024
Mof_C 	C 	0.8799	0.1201	0.2452	-0.014
Mof_H 	H 	0.8689	0.1311	0.2272	0.024
Mof_C 	C 	0.90995	0.40995	0.19979	0.079
Mof_H 	H 	0.9182	0.4182	0.1791	0.026
Mof_C 	C 	0.8799	0.3799	0.2548	-0.016
Mof_H 	H 	0.8689	0.3689	0.2728	0.025
Mof_C 	C 	0.90995	0.90995	0.69979	0.078
Mof_H 	H 	0.9182	0.9182	0.6791	0.028
Mof_C 	C 	0.8799	0.8799	0.7548	-0.02
Mof_H 	H 	0.8689	0.8689	0.7728	0.027
Mof_C 	C 	0.09005	0.90995	0.30021	0.08
Mof_H 	H 	0.0818	0.9182	0.3209	0.024
Mof_C 	C 	0.1201	0.8799	0.2452	-0.014
Mof_H 	H 	0.1311	0.8689	0.2272	0.024
Mof_C 	C 	0.59005	0.80021	0.90995	0.079
Mof_H 	H 	0.5818	0.8209	0.9182	0.026
Mof_C 	C 	0.6201	0.7452	0.8799	-0.016
Mof_H 	H 	0.6311	0.7272	0.8689	0.025
Mof_C 	C 	0.59005	0.30021	0.40995	0.08
Mof_H 	H 	0.5818	0.3209	0.4182	0.024
Mof_C 	C 	0.6201	0.2452	0.3799	-0.012
Mof_H 	H 	0.6311	0.2272	0.3689	0.023
Mof_C 	C 	0.59005	0.19979	0.09005	0.081
Mof_H 	H 	0.5818	0.1791	0.0818	0.023
Mof_C 	C 	0.6201	0.2548	0.1201	-0.011
Mof_H 	H 	0.6311	0.2728	0.1311	0.023
Mof_C 	C 	0.59005	0.69979	0.59005	0.08
Mof_H 	H 	0.5818	0.6791	0.5818	0.024
Mof_C 	C 	0.6201	0.7548	0.6201	-0.013
Mof_H 	H 	0.6311	0.7728	0.6311	0.024
Mof_C 	C 	0.40995	0.30021	0.59005	0.08
Mof_H 	H 	0.4182	0.3209	0.5818	0.024
Mof_C 	C 	0.3799	0.2452	0.6201	-0.012
Mof_H 	H 	0.3689	0.2272	0.6311	0.023
Mof_C 	C 	0.40995	0.19979	0.90995	0.079
Mof_H 	H 	0.4182	0.1791	0.9182	0.026
Mof_C 	C 	0.3799	0.2548	0.8799	-0.016
Mof_H 	H 	0.3689	0.2728	0.8689	0.025
Mof_C 	C 	0.7871	0.2622	0.5	-0.016
Mof_C 	C 	0.7871	0.7622	-0	0.106
Mof_C 	C 	0.2871	0.2622	-0	0.104
Mof_C 	C 	0.2871	0.7622	0.5	-0.016
Mof_C 	C 	0.2129	0.7378	0.5	-0.018
Mof_C 	C 	0.2129	0.2378	-0	0.102
Mof_C 	C 	0.7129	0.7378	-0	0.104
Mof_C 	C 	0.7129	0.2378	0.5	-0.018
Mof_C 	C 	0.2129	0.2622	0.5	-0.018
Mof_C 	C 	0.2129	0.7622	-0	0.104
Mof_C 	C 	0.7129	0.2622	-0	0.104
Mof_C 	C 	0.7129	0.7622	0.5	-0.016
Mof_C 	C 	0.7871	0.7378	0.5	-0.016
Mof_C 	C 	0.7871	0.2378	-0	0.105
Mof_C 	C 	0.2871	0.7378	-0	0.104
Mof_C 	C 	0.2871	0.2378	0.5	-0.018
Mof_C 	C 	0.5	0.7871	0.2622	-0.016
Mof_C 	C 	0.5	0.2871	0.7622	-0.016
Mof_C 	C 	-9.82953e-33	0.7871	0.7622	0.106
Mof_C 	C 	9.83093e-34	0.2871	0.2622	0.104
Mof_C 	C 	0.5	0.2129	0.7378	-0.018
Mof_C 	C 	0.5	0.7129	0.2378	-0.018
Mof_C 	C 	-5.45205e-33	0.2129	0.2378	0.102
Mof_C 	C 	-2.26083e-32	0.7129	0.7378	0.104
Mof_C 	C 	0.5	0.2129	0.2622	-0.018
Mof_C 	C 	0.5	0.7129	0.7622	-0.016
Mof_C 	C 	-3.48587e-33	0.2129	0.7622	0.104
Mof_C 	C 	-2.18874e-33	0.7129	0.2622	0.104
Mof_C 	C 	0.5	0.7871	0.7378	-0.016
Mof_C 	C 	0.5	0.2871	0.2378	-0.018
Mof_C 	C 	8.91607e-34	0.7871	0.2378	0.105
Mof_C 	C 	-3.57735e-33	0.2871	0.7378	0.104
Mof_C 	C 	0.2622	0.5	0.7871	-0.016
Mof_C 	C 	0.2622	3.17183e-33	0.2871	0.104
Mof_C 	C 	0.7622	0.5	0.2871	-0.016
Mof_C 	C 	0.7622	0	0.7871	0.106
Mof_C 	C 	0.7378	0.5	0.2129	-0.018
Mof_C 	C 	0.7378	0	0.7129	0.104
Mof_C 	C 	0.2378	0.5	0.7129	-0.018
Mof_C 	C 	0.2378	0	0.2129	0.102
Mof_C 	C 	0.2622	0.5	0.2129	-0.018
Mof_C 	C 	0.2622	0	0.7129	0.104
Mof_C 	C 	0.7622	0.5	0.7129	-0.016
Mof_C 	C 	0.7622	0	0.2129	0.104
Mof_C 	C 	0.7378	0.5	0.7871	-0.016
Mof_C 	C 	0.7378	3.17183e-33	0.2871	0.104
Mof_C 	C 	0.2378	0.5	0.2871	-0.018
Mof_C 	C 	0.2378	0	0.7871	0.105
Mof_C 	C 	0.2622	0.7871	0.5	-0.016
Mof_C 	C 	0.2622	0.2871	-0	0.104
Mof_C 	C 	0.7622	0.7871	-0	0.106
Mof_C 	C 	0.7622	0.2871	0.5	-0.016
Mof_C 	C 	0.7378	0.2129	0.5	-0.018
Mof_C 	C 	0.7378	0.7129	-0	0.104
Mof_C 	C 	0.2378	0.2129	-0	0.102
Mof_C 	C 	0.2378	0.7129	0.5	-0.018
Mof_C 	C 	0.2622	0.2129	0.5	-0.018
Mof_C 	C 	0.2622	0.7129	-0	0.104
Mof_C 	C 	0.7622	0.2129	-0	0.104
Mof_C 	C 	0.7622	0.7129	0.5	-0.016
Mof_C 	C 	0.7378	0.7871	0.5	-0.016
Mof_C 	C 	0.7378	0.2871	-0	0.104
Mof_C 	C 	0.2378	0.7871	-0	0.105
Mof_C 	C 	0.2378	0.2871	0.5	-0.018
Mof_C 	C 	0.7871	0.5	0.7378	-0.016
Mof_C 	C 	0.7871	0	0.2378	0.105
Mof_C 	C 	0.2871	0.5	0.2378	-0.018
Mof_C 	C 	0.2871	-6.34366e-33	0.7378	0.104
Mof_C 	C 	0.2129	0.5	0.2622	-0.018
Mof_C 	C 	0.2129	0	0.7622	0.104
Mof_C 	C 	0.7129	0.5	0.7622	-0.016
Mof_C 	C 	0.7129	0	0.2622	0.104
Mof_C 	C 	0.2129	0.5	0.7378	-0.018
Mof_C 	C 	0.2129	0	0.2378	0.102
Mof_C 	C 	0.7129	0.5	0.2378	-0.018
Mof_C 	C 	0.7129	-6.34366e-33	0.7378	0.104
Mof_C 	C 	0.7871	0.5	0.2622	-0.016
Mof_C 	C 	0.7871	0	0.7622	0.106
Mof_C 	C 	0.2871	0.5	0.7622	-0.016
Mof_C 	C 	0.2871	0	0.2622	0.104
Mof_C 	C 	0.5	0.2622	0.2129	-0.018
Mof_C 	C 	0.5	0.7622	0.7129	-0.016
Mof_C 	C 	-3.67071e-33	0.2622	0.7129	0.104
Mof_C 	C 	-7.87668e-34	0.7622	0.2129	0.104
Mof_C 	C 	0.5	0.7378	0.7871	-0.016
Mof_C 	C 	0.5	0.2378	0.2871	-0.018
Mof_C 	C 	-2.09538e-33	0.7378	0.2871	0.104
Mof_C 	C 	2.95115e-33	0.2378	0.7871	0.105
Mof_C 	C 	0.5	0.2622	0.7871	-0.016
Mof_C 	C 	0.5	0.7622	0.2871	-0.016
Mof_C 	C 	1.07645e-33	0.2622	0.2871	0.104
Mof_C 	C 	-9.73617e-33	0.7622	0.7871	0.106
Mof_C 	C 	0.5	0.7378	0.2129	-0.018
Mof_C 	C 	0.5	0.2378	0.7129	-0.018
Mof_C 	C 	-1.6358e-32	0.7378	0.7129	0.104
Mof_C 	C 	-3.9595e-33	0.2378	0.2129	0.102
Mof_C 	C 	0.7356	0.1064	0.6064	-0.085
Mof_H 	H 	0.7135	0.1127	0.6127	0.048
Mof_C 	C 	0.2356	0.1064	0.1064	-0.088
Mof_H 	H 	0.2135	0.1127	0.1127	0.048
Mof_C 	C 	0.2356	0.6064	0.6064	-0.082
Mof_H 	H 	0.2135	0.6127	0.6127	0.047
Mof_C 	C 	0.2644	0.8936	0.6064	-0.077
Mof_H 	H 	0.2865	0.8873	0.6127	0.047
Mof_C 	C 	0.7644	0.8936	0.1064	-0.079
Mof_H 	H 	0.7865	0.8873	0.1127	0.048
Mof_C 	C 	0.2644	0.1064	0.3936	-0.085
Mof_H 	H 	0.2865	0.1127	0.3873	0.048
Mof_C 	C 	0.2644	0.6064	0.8936	-0.077
Mof_H 	H 	0.2865	0.6127	0.8873	0.047
Mof_C 	C 	0.7644	0.1064	0.8936	-0.079
Mof_H 	H 	0.7865	0.1127	0.8873	0.048
Mof_C 	C 	0.7356	0.8936	0.3936	-0.077
Mof_H 	H 	0.7135	0.8873	0.3873	0.047
Mof_C 	C 	0.2356	0.8936	0.8936	-0.073
Mof_H 	H 	0.2135	0.8873	0.8873	0.047
Mof_C 	C 	0.6064	0.7356	0.1064	-0.085
Mof_H 	H 	0.6127	0.7135	0.1127	0.048
Mof_C 	C 	0.6064	0.2356	0.6064	-0.082
Mof_H 	H 	0.6127	0.2135	0.6127	0.047
Mof_C 	C 	0.6064	0.2644	0.8936	-0.077
Mof_H 	H 	0.6127	0.2865	0.8873	0.047
Mof_C 	C 	0.6064	0.7644	0.3936	-0.081
Mof_H 	H 	0.6127	0.7865	0.3873	0.048
Mof_C 	C 	0.3936	0.2644	0.1064	-0.085
Mof_H 	H 	0.3873	0.2865	0.1127	0.048
Mof_C 	C 	0.3936	0.7644	0.6064	-0.081
Mof_H 	H 	0.3873	0.7865	0.6127	0.048
Mof_C 	C 	0.8936	0.2644	0.6064	-0.077
Mof_H 	H 	0.8873	0.2865	0.6127	0.047
Mof_C 	C 	0.3936	0.7356	0.8936	-0.077
Mof_H 	H 	0.3873	0.7135	0.8873	0.047
Mof_C 	C 	0.3936	0.2356	0.3936	-0.082
Mof_H 	H 	0.3873	0.2135	0.3873	0.047
Mof_C 	C 	0.8936	0.2356	0.8936	-0.073
Mof_H 	H 	0.8873	0.2135	0.8873	0.047
Mof_C 	C 	0.1064	0.6064	0.7356	-0.085
Mof_H 	H 	0.1127	0.6127	0.7135	0.048
Mof_C 	C 	0.1064	0.1064	0.2356	-0.088
Mof_H 	H 	0.1127	0.1127	0.2135	0.048
Mof_C 	C 	0.6064	0.6064	0.2356	-0.082
Mof_H 	H 	0.6127	0.6127	0.2135	0.047
Mof_C 	C 	0.8936	0.6064	0.2644	-0.077
Mof_H 	H 	0.8873	0.6127	0.2865	0.047
Mof_C 	C 	0.8936	0.1064	0.7644	-0.079
Mof_H 	H 	0.8873	0.1127	0.7865	0.048
Mof_C 	C 	0.1064	0.3936	0.2644	-0.085
Mof_H 	H 	0.1127	0.3873	0.2865	0.048
Mof_C 	C 	0.1064	0.8936	0.7644	-0.079
Mof_H 	H 	0.1127	0.8873	0.7865	0.048
Mof_C 	C 	0.6064	0.8936	0.2644	-0.077
Mof_H 	H 	0.6127	0.8873	0.2865	0.047
Mof_C 	C 	0.8936	0.3936	0.7356	-0.077
Mof_H 	H 	0.8873	0.3873	0.7135	0.047
Mof_C 	C 	0.8936	0.8936	0.2356	-0.073
Mof_H 	H 	0.8873	0.8873	0.2135	0.047
Mof_C 	C 	0.1064	0.7356	0.3936	-0.085
Mof_H 	H 	0.1127	0.7135	0.3873	0.048
Mof_C 	C 	0.1064	0.2356	0.8936	-0.081
Mof_H 	H 	0.1127	0.2135	0.8873	0.047
Mof_C 	C 	0.6064	0.7356	0.8936	-0.077
Mof_H 	H 	0.6127	0.7135	0.8873	0.047
Mof_C 	C 	0.8936	0.2644	0.3936	-0.077
Mof_H 	H 	0.8873	0.2865	0.3873	0.047
Mof_C 	C 	0.8936	0.7644	0.8936	-0.072
Mof_H 	H 	0.8873	0.7865	0.8873	0.047
Mof_C 	C 	0.1064	0.2644	0.6064	-0.085
Mof_H 	H 	0.1127	0.2865	0.6127	0.048
Mof_C 	C 	0.1064	0.7644	0.1064	-0.087
Mof_H 	H 	0.1127	0.7865	0.1127	0.048
Mof_C 	C 	0.6064	0.7644	0.6064	-0.081
Mof_H 	H 	0.6127	0.7865	0.6127	0.048
Mof_C 	C 	0.8936	0.7356	0.6064	-0.077
Mof_H 	H 	0.8873	0.7135	0.6127	0.047
Mof_C 	C 	0.8936	0.2356	0.1064	-0.081
Mof_H 	H 	0.8873	0.2135	0.1127	0.047
Mof_C 	C 	0.7356	0.6064	0.8936	-0.077
Mof_H 	H 	0.7135	0.6127	0.8873	0.047
Mof_C 	C 	0.2356	0.6064	0.3936	-0.082
Mof_H 	H 	0.2135	0.6127	0.3873	0.047
Mof_C 	C 	0.2644	0.6064	0.1064	-0.085
Mof_H 	H 	0.2865	0.6127	0.1127	0.048
Mof_C 	C 	0.7644	0.6064	0.6064	-0.081
Mof_H 	H 	0.7865	0.6127	0.6127	0.048
Mof_C 	C 	0.2644	0.3936	0.8936	-0.077
Mof_H 	H 	0.2865	0.3873	0.8873	0.047
Mof_C 	C 	0.7644	0.3936	0.3936	-0.081
Mof_H 	H 	0.7865	0.3873	0.3873	0.048
Mof_C 	C 	0.7644	0.8936	0.8936	-0.072
Mof_H 	H 	0.7865	0.8873	0.8873	0.047
Mof_C 	C 	0.7356	0.3936	0.1064	-0.085
Mof_H 	H 	0.7135	0.3873	0.1127	0.048
Mof_C 	C 	0.7356	0.8936	0.6064	-0.077
Mof_H 	H 	0.7135	0.8873	0.6127	0.047
Mof_C 	C 	0.2356	0.3936	0.6064	-0.082
Mof_H 	H 	0.2135	0.3873	0.6127	0.047
Mof_C 	C 	0.6064	0.1064	0.2644	-0.085
Mof_H 	H 	0.6127	0.1127	0.2865	0.048
Mof_C 	C 	0.6064	0.6064	0.7644	-0.081
Mof_H 	H 	0.6127	0.6127	0.7865	0.048
Mof_C 	C 	0.6064	0.8936	0.7356	-0.077
Mof_H 	H 	0.6127	0.8873	0.7135	0.047
Mof_C 	C 	0.6064	0.3936	0.2356	-0.082
Mof_H 	H 	0.6127	0.3873	0.2135	0.047
Mof_C 	C 	0.3936	0.1064	0.7356	-0.085
Mof_H 	H 	0.3873	0.1127	0.7135	0.048
Mof_C 	C 	0.3936	0.6064	0.2356	-0.082
Mof_H 	H 	0.3873	0.6127	0.2135	0.047
Mof_C 	C 	0.8936	0.6064	0.7356	-0.077
Mof_H 	H 	0.8873	0.6127	0.7135	0.047
Mof_C 	C 	0.3936	0.8936	0.2644	-0.077
Mof_H 	H 	0.3873	0.8873	0.2865	0.047
Mof_C 	C 	0.3936	0.3936	0.7644	-0.081
Mof_H 	H 	0.3873	0.3873	0.7865	0.048
Mof_C 	C 	0.8936	0.8936	0.7644	-0.072
Mof_H 	H 	0.8873	0.8873	0.7865	0.047
Mof_C 	C 	0.2644	0.8936	0.3936	-0.077
Mof_H 	H 	0.2865	0.8873	0.3873	0.047
Mof_C 	C 	0.7356	0.1064	0.3936	-0.085
Mof_H 	H 	0.7135	0.1127	0.3873	0.048
Mof_C 	C 	0.2356	0.1064	0.8936	-0.081
Mof_H 	H 	0.2135	0.1127	0.8873	0.047
Mof_C 	C 	0.2356	0.8936	0.1064	-0.081
Mof_H 	H 	0.2135	0.8873	0.1127	0.047
Mof_C 	C 	0.2644	0.1064	0.6064	-0.085
Mof_H 	H 	0.2865	0.1127	0.6127	0.048
Mof_C 	C 	0.7644	0.1064	0.1064	-0.087
Mof_H 	H 	0.7865	0.1127	0.1127	0.048
Mof_C 	C 	0.3936	0.2644	0.8936	-0.077
Mof_H 	H 	0.3873	0.2865	0.8873	0.047
Mof_C 	C 	0.3936	0.7644	0.3936	-0.081
Mof_H 	H 	0.3873	0.7865	0.3873	0.048
Mof_C 	C 	0.3936	0.7356	0.1064	-0.085
Mof_H 	H 	0.3873	0.7135	0.1127	0.048
Mof_C 	C 	0.3936	0.2356	0.6064	-0.082
Mof_H 	H 	0.3873	0.2135	0.6127	0.047
Mof_C 	C 	0.6064	0.2356	0.3936	-0.082
Mof_H 	H 	0.6127	0.2135	0.3873	0.047
Mof_C 	C 	0.6064	0.2644	0.1064	-0.085
Mof_H 	H 	0.6127	0.2865	0.1127	0.048
Mof_C 	C 	0.8936	0.3936	0.2644	-0.077
Mof_H 	H 	0.8873	0.3873	0.2865	0.047
Mof_C 	C 	0.1064	0.3936	0.7356	-0.085
Mof_H 	H 	0.1127	0.3873	0.7135	0.048
Mof_C 	C 	0.1064	0.8936	0.2356	-0.081
Mof_H 	H 	0.1127	0.8873	0.2135	0.047
Mof_C 	C 	0.8936	0.1064	0.2356	-0.081
Mof_H 	H 	0.8873	0.1127	0.2135	0.047
Mof_C 	C 	0.1064	0.6064	0.2644	-0.085
Mof_H 	H 	0.1127	0.6127	0.2865	0.048
Mof_C 	C 	0.1064	0.1064	0.7644	-0.087
Mof_H 	H 	0.1127	0.1127	0.7865	0.048
Mof_C 	C 	0.8936	0.7644	0.1064	-0.079
Mof_H 	H 	0.8873	0.7865	0.1127	0.048
Mof_C 	C 	0.1064	0.7356	0.6064	-0.085
Mof_H 	H 	0.1127	0.7135	0.6127	0.048
Mof_C 	C 	0.1064	0.2356	0.1064	-0.088
Mof_H 	H 	0.1127	0.2135	0.1127	0.048
Mof_C 	C 	0.8936	0.7356	0.3936	-0.077
Mof_H 	H 	0.8873	0.7135	0.3873	0.047
Mof_C 	C 	0.1064	0.2644	0.3936	-0.085
Mof_H 	H 	0.1127	0.2865	0.3873	0.048
Mof_C 	C 	0.1064	0.7644	0.8936	-0.079
Mof_H 	H 	0.1127	0.7865	0.8873	0.048
Mof_C 	C 	0.2644	0.3936	0.1064	-0.085
Mof_H 	H 	0.2865	0.3873	0.1127	0.048
Mof_C 	C 	0.7644	0.3936	0.6064	-0.081
Mof_H 	H 	0.7865	0.3873	0.6127	0.048
Mof_C 	C 	0.7356	0.3936	0.8936	-0.077
Mof_H 	H 	0.7135	0.3873	0.8873	0.047
Mof_C 	C 	0.2356	0.3936	0.3936	-0.082
Mof_H 	H 	0.2135	0.3873	0.3873	0.047
Mof_C 	C 	0.7356	0.6064	0.1064	-0.085
Mof_H 	H 	0.7135	0.6127	0.1127	0.048
Mof_C 	C 	0.7644	0.6064	0.3936	-0.081
Mof_H 	H 	0.7865	0.6127	0.3873	0.048
Mof_C 	C 	0.3936	0.8936	0.7356	-0.077
Mof_H 	H 	0.3873	0.8873	0.7135	0.047
Mof_C 	C 	0.3936	0.3936	0.2356	-0.082
Mof_H 	H 	0.3873	0.3873	0.2135	0.047
Mof_C 	C 	0.3936	0.1064	0.2644	-0.085
Mof_H 	H 	0.3873	0.1127	0.2865	0.048
Mof_C 	C 	0.3936	0.6064	0.7644	-0.081
Mof_H 	H 	0.3873	0.6127	0.7865	0.048
Mof_C 	C 	0.6064	0.3936	0.7644	-0.081
Mof_H 	H 	0.6127	0.3873	0.7865	0.048
Mof_C 	C 	0.6064	0.1064	0.7356	-0.085
Mof_H 	H 	0.6127	0.1127	0.7135	0.048
_end
