# CIF file generated by openbabel 2.4.1, see http://openbabel.sf.net
data_I
_chemical_name_common 'image0'
_cell_length_a 16.6179
_cell_length_b 16.6179
_cell_length_c 22.266
_cell_angle_alpha 90
_cell_angle_beta 90
_cell_angle_gamma 90
_space_group_name_H-M_alt 'P 1'
_space_group_name_Hall 'P 1'
loop_
    _symmetry_equiv_pos_as_xyz
    x,y,z
loop_
    _atom_site_label
    _atom_site_type_symbol
    _atom_site_fract_x
    _atom_site_fract_y
    _atom_site_fract_z
    _atom_site_occupancy
    C1      C    0.97070   0.93810   0.68660   1.000
    H1      H    0.94610   0.89350   0.66710   1.000
    C2      C    0.97350   0.93480   0.74860   1.000
    H2      H    0.95680   0.88650   0.76770   1.000
    C3      C    0.98300   0.93070   0.88310   1.000
    C4      C    0.04600   0.06000   0.87790   1.000
    C5      C    0.94600   0.85630   0.86630   1.000
    H3      H    0.89910   0.86720   0.84070   1.000
    H4      H    0.92860   0.82750   0.90240   1.000
    H5      H    0.98470   0.82320   0.84410   1.000
    C6      C    0.08200   0.13300   0.85500   1.000
    H6      H    0.10030   0.12350   0.81370   1.000
    H7      H    0.12740   0.14810   0.88020   1.000
    H8      H    0.04160   0.17590   0.85520   1.000
    C7      C    0.02930   0.06190   0.68660   1.000
    H9      H    0.05390   0.10650   0.66710   1.000
    C8      C    0.02650   0.06520   0.74860   1.000
    H10     H    0.04320   0.11350   0.76770   1.000
    C9      C    0.01700   0.06930   0.88310   1.000
    C10     C    0.95400   0.94000   0.87790   1.000
    C11     C    0.05400   0.14370   0.86630   1.000
    H11     H    0.10090   0.13280   0.84070   1.000
    H12     H    0.07140   0.17250   0.90240   1.000
    H13     H    0.01530   0.17680   0.84410   1.000
    C12     C    0.91800   0.86700   0.85500   1.000
    H14     H    0.89970   0.87650   0.81370   1.000
    H15     H    0.87260   0.85190   0.88020   1.000
    H16     H    0.95840   0.82410   0.85520   1.000
    C13     C    0.06190   0.97070   0.68660   1.000
    H17     H    0.10650   0.94610   0.66710   1.000
    C14     C    0.06520   0.97350   0.74860   1.000
    H18     H    0.11350   0.95680   0.76770   1.000
    C15     C    0.06930   0.98300   0.88310   1.000
    C16     C    0.94000   0.04600   0.87790   1.000
    C17     C    0.14370   0.94600   0.86630   1.000
    H19     H    0.13280   0.89910   0.84070   1.000
    H20     H    0.17250   0.92860   0.90240   1.000
    H21     H    0.17680   0.98470   0.84410   1.000
    C18     C    0.86700   0.08200   0.85500   1.000
    H22     H    0.87650   0.10030   0.81370   1.000
    H23     H    0.85190   0.12740   0.88020   1.000
    H24     H    0.82410   0.04160   0.85520   1.000
    C19     C    0.93810   0.02930   0.68660   1.000
    H25     H    0.89350   0.05390   0.66710   1.000
    C20     C    0.93480   0.02650   0.74860   1.000
    H26     H    0.88650   0.04320   0.76770   1.000
    C21     C    0.93070   0.01700   0.88310   1.000
    C22     C    0.06000   0.95400   0.87790   1.000
    C23     C    0.85630   0.05400   0.86630   1.000
    H27     H    0.86720   0.10090   0.84070   1.000
    H28     H    0.82750   0.07140   0.90240   1.000
    H29     H    0.82320   0.01530   0.84410   1.000
    C24     C    0.13300   0.91800   0.85500   1.000
    H30     H    0.12350   0.89970   0.81370   1.000
    H31     H    0.14810   0.87260   0.88020   1.000
    H32     H    0.17590   0.95840   0.85520   1.000
    C25     C    0.02930   0.93810   0.31340   1.000
    H33     H    0.05390   0.89350   0.33290   1.000
    C26     C    0.02650   0.93480   0.25140   1.000
    H34     H    0.04320   0.88650   0.23230   1.000
    C27     C    0.01700   0.93070   0.11690   1.000
    C28     C    0.95400   0.06000   0.12210   1.000
    C29     C    0.05400   0.85630   0.13370   1.000
    H35     H    0.10090   0.86720   0.15930   1.000
    H36     H    0.07140   0.82750   0.09760   1.000
    H37     H    0.01530   0.82320   0.15590   1.000
    C30     C    0.91800   0.13300   0.14500   1.000
    H38     H    0.89970   0.12350   0.18630   1.000
    H39     H    0.87260   0.14810   0.11980   1.000
    H40     H    0.95840   0.17590   0.14480   1.000
    C31     C    0.97070   0.06190   0.31340   1.000
    H41     H    0.94610   0.10650   0.33290   1.000
    C32     C    0.97350   0.06520   0.25140   1.000
    H42     H    0.95680   0.11350   0.23230   1.000
    C33     C    0.98300   0.06930   0.11690   1.000
    C34     C    0.04600   0.94000   0.12210   1.000
    C35     C    0.94600   0.14370   0.13370   1.000
    H43     H    0.89910   0.13280   0.15930   1.000
    H44     H    0.92860   0.17250   0.09760   1.000
    H45     H    0.98470   0.17680   0.15590   1.000
    C36     C    0.08200   0.86700   0.14500   1.000
    H46     H    0.10030   0.87650   0.18630   1.000
    H47     H    0.12740   0.85190   0.11980   1.000
    H48     H    0.04160   0.82410   0.14480   1.000
    C37     C    0.93810   0.97070   0.31340   1.000
    H49     H    0.89350   0.94610   0.33290   1.000
    C38     C    0.93480   0.97350   0.25140   1.000
    H50     H    0.88650   0.95680   0.23230   1.000
    C39     C    0.93070   0.98300   0.11690   1.000
    C40     C    0.06000   0.04600   0.12210   1.000
    C41     C    0.85630   0.94600   0.13370   1.000
    H51     H    0.86720   0.89910   0.15930   1.000
    H52     H    0.82750   0.92860   0.09760   1.000
    H53     H    0.82320   0.98470   0.15590   1.000
    C42     C    0.13300   0.08200   0.14500   1.000
    H54     H    0.12350   0.10030   0.18630   1.000
    H55     H    0.14810   0.12740   0.11980   1.000
    H56     H    0.17590   0.04160   0.14480   1.000
    C43     C    0.06190   0.02930   0.31340   1.000
    H57     H    0.10650   0.05390   0.33290   1.000
    C44     C    0.06520   0.02650   0.25140   1.000
    H58     H    0.11350   0.04320   0.23230   1.000
    C45     C    0.06930   0.01700   0.11690   1.000
    C46     C    0.94000   0.95400   0.12210   1.000
    C47     C    0.14370   0.05400   0.13370   1.000
    H59     H    0.13280   0.10090   0.15930   1.000
    H60     H    0.17250   0.07140   0.09760   1.000
    H61     H    0.17680   0.01530   0.15590   1.000
    C48     C    0.86700   0.91800   0.14500   1.000
    H62     H    0.87650   0.89970   0.18630   1.000
    H63     H    0.85190   0.87260   0.11980   1.000
    H64     H    0.82410   0.95840   0.14480   1.000
    C49     C    0.02930   0.06190   0.31340   1.000
    H65     H    0.05390   0.10650   0.33290   1.000
    C50     C    0.02650   0.06520   0.25140   1.000
    H66     H    0.04320   0.11350   0.23230   1.000
    C51     C    0.01700   0.06930   0.11690   1.000
    C52     C    0.95400   0.94000   0.12210   1.000
    C53     C    0.05400   0.14370   0.13370   1.000
    H67     H    0.10090   0.13280   0.15930   1.000
    H68     H    0.07140   0.17250   0.09760   1.000
    H69     H    0.01530   0.17680   0.15590   1.000
    C54     C    0.91800   0.86700   0.14500   1.000
    H70     H    0.89970   0.87650   0.18630   1.000
    H71     H    0.87260   0.85190   0.11980   1.000
    H72     H    0.95840   0.82410   0.14480   1.000
    C55     C    0.97070   0.93810   0.31340   1.000
    H73     H    0.94610   0.89350   0.33290   1.000
    C56     C    0.97350   0.93480   0.25140   1.000
    H74     H    0.95680   0.88650   0.23230   1.000
    C57     C    0.98300   0.93070   0.11690   1.000
    C58     C    0.04600   0.06000   0.12210   1.000
    C59     C    0.94600   0.85630   0.13370   1.000
    H75     H    0.89910   0.86720   0.15930   1.000
    H76     H    0.92860   0.82750   0.09760   1.000
    H77     H    0.98470   0.82320   0.15590   1.000
    C60     C    0.08200   0.13300   0.14500   1.000
    H78     H    0.10030   0.12350   0.18630   1.000
    H79     H    0.12740   0.14810   0.11980   1.000
    H80     H    0.04160   0.17590   0.14480   1.000
    C61     C    0.93810   0.02930   0.31340   1.000
    H81     H    0.89350   0.05390   0.33290   1.000
    C62     C    0.93480   0.02650   0.25140   1.000
    H82     H    0.88650   0.04320   0.23230   1.000
    C63     C    0.93070   0.01700   0.11690   1.000
    C64     C    0.06000   0.95400   0.12210   1.000
    C65     C    0.85630   0.05400   0.13370   1.000
    H83     H    0.86720   0.10090   0.15930   1.000
    H84     H    0.82750   0.07140   0.09760   1.000
    H85     H    0.82320   0.01530   0.15590   1.000
    C66     C    0.13300   0.91800   0.14500   1.000
    H86     H    0.12350   0.89970   0.18630   1.000
    H87     H    0.14810   0.87260   0.11980   1.000
    H88     H    0.17590   0.95840   0.14480   1.000
    C67     C    0.06190   0.97070   0.31340   1.000
    H89     H    0.10650   0.94610   0.33290   1.000
    C68     C    0.06520   0.97350   0.25140   1.000
    H90     H    0.11350   0.95680   0.23230   1.000
    C69     C    0.06930   0.98300   0.11690   1.000
    C70     C    0.94000   0.04600   0.12210   1.000
    C71     C    0.14370   0.94600   0.13370   1.000
    H91     H    0.13280   0.89910   0.15930   1.000
    H92     H    0.17250   0.92860   0.09760   1.000
    H93     H    0.17680   0.98470   0.15590   1.000
    C72     C    0.86700   0.08200   0.14500   1.000
    H94     H    0.87650   0.10030   0.18630   1.000
    H95     H    0.85190   0.12740   0.11980   1.000
    H96     H    0.82410   0.04160   0.14480   1.000
    C73     C    0.97070   0.06190   0.68660   1.000
    H97     H    0.94610   0.10650   0.66710   1.000
    C74     C    0.97350   0.06520   0.74860   1.000
    H98     H    0.95680   0.11350   0.76770   1.000
    C75     C    0.98300   0.06930   0.88310   1.000
    C76     C    0.04600   0.94000   0.87790   1.000
    C77     C    0.94600   0.14370   0.86630   1.000
    H99     H    0.89910   0.13280   0.84070   1.000
    H100    H    0.92860   0.17250   0.90240   1.000
    H101    H    0.98470   0.17680   0.84410   1.000
    C78     C    0.08200   0.86700   0.85500   1.000
    H102    H    0.10030   0.87650   0.81370   1.000
    H103    H    0.12740   0.85190   0.88020   1.000
    H104    H    0.04160   0.82410   0.85520   1.000
    C79     C    0.02930   0.93810   0.68660   1.000
    H105    H    0.05390   0.89350   0.66710   1.000
    C80     C    0.02650   0.93480   0.74860   1.000
    H106    H    0.04320   0.88650   0.76770   1.000
    C81     C    0.01700   0.93070   0.88310   1.000
    C82     C    0.95400   0.06000   0.87790   1.000
    C83     C    0.05400   0.85630   0.86630   1.000
    H107    H    0.10090   0.86720   0.84070   1.000
    H108    H    0.07140   0.82750   0.90240   1.000
    H109    H    0.01530   0.82320   0.84410   1.000
    C84     C    0.91800   0.13300   0.85500   1.000
    H110    H    0.89970   0.12350   0.81370   1.000
    H111    H    0.87260   0.14810   0.88020   1.000
    H112    H    0.95840   0.17590   0.85520   1.000
    C85     C    0.06190   0.02930   0.68660   1.000
    H113    H    0.10650   0.05390   0.66710   1.000
    C86     C    0.06520   0.02650   0.74860   1.000
    H114    H    0.11350   0.04320   0.76770   1.000
    C87     C    0.06930   0.01700   0.88310   1.000
    C88     C    0.94000   0.95400   0.87790   1.000
    C89     C    0.14370   0.05400   0.86630   1.000
    H115    H    0.13280   0.10090   0.84070   1.000
    H116    H    0.17250   0.07140   0.90240   1.000
    H117    H    0.17680   0.01530   0.84410   1.000
    C90     C    0.86700   0.91800   0.85500   1.000
    H118    H    0.87650   0.89970   0.81370   1.000
    H119    H    0.85190   0.87260   0.88020   1.000
    H120    H    0.82410   0.95840   0.85520   1.000
    C91     C    0.93810   0.97070   0.68660   1.000
    H121    H    0.89350   0.94610   0.66710   1.000
    C92     C    0.93480   0.97350   0.74860   1.000
    H122    H    0.88650   0.95680   0.76770   1.000
    C93     C    0.93070   0.98300   0.88310   1.000
    C94     C    0.06000   0.04600   0.87790   1.000
    C95     C    0.85630   0.94600   0.86630   1.000
    H123    H    0.86720   0.89910   0.84070   1.000
    H124    H    0.82750   0.92860   0.90240   1.000
    H125    H    0.82320   0.98470   0.84410   1.000
    C96     C    0.13300   0.08200   0.85500   1.000
    H126    H    0.12350   0.10030   0.81370   1.000
    H127    H    0.14810   0.12740   0.88020   1.000
    H128    H    0.17590   0.04160   0.85520   1.000
    Zn1     Zn   0.50000   0.50000   0.50000   1.000
    Zn2     Zn   0.00000   0.00000   0.56564   1.000
    N1      N    0.00000   0.00000   0.64820   1.000
    C97     C    0.00000   0.00000   0.78580   1.000
    C98     C    0.00000   0.00000   0.84210   1.000
    Zn3     Zn   0.00000   0.00000   0.43436   1.000
    N2      N    0.00000   0.00000   0.35180   1.000
    C99     C    0.00000   0.00000   0.21420   1.000
    C100    C    0.00000   0.00000   0.15790   1.000
    O1      O    0.91578   0.91578   0.55240   1.000
    C101    C    0.79937   0.79937   0.55310   1.000
    H129    H    0.81930   0.81930   0.59030   1.000
    C102    C    0.73870   0.73870   0.55080   1.000
    H130    H    0.71800   0.71800   0.58750   1.000
    C103    C    0.03870   0.03870   0.94260   1.000
    O2      O    0.08422   0.08422   0.55240   1.000
    C104    C    0.20063   0.20063   0.55310   1.000
    H131    H    0.18070   0.18070   0.59030   1.000
    C105    C    0.26130   0.26130   0.55080   1.000
    H132    H    0.28200   0.28200   0.58750   1.000
    C106    C    0.96130   0.96130   0.94260   1.000
    O3      O    0.08422   0.91578   0.55240   1.000
    C107    C    0.20063   0.79937   0.55310   1.000
    H133    H    0.18070   0.81930   0.59030   1.000
    C108    C    0.26130   0.73870   0.55080   1.000
    H134    H    0.28200   0.71800   0.58750   1.000
    C109    C    0.96130   0.03870   0.94260   1.000
    O4      O    0.91578   0.08422   0.55240   1.000
    C110    C    0.79937   0.20063   0.55310   1.000
    H135    H    0.81930   0.18070   0.59030   1.000
    C111    C    0.73870   0.26130   0.55080   1.000
    H136    H    0.71800   0.28200   0.58750   1.000
    C112    C    0.03870   0.96130   0.94260   1.000
    O5      O    0.08422   0.91578   0.44760   1.000
    C113    C    0.20063   0.79937   0.44690   1.000
    H137    H    0.18070   0.81930   0.40970   1.000
    C114    C    0.26130   0.73870   0.44920   1.000
    H138    H    0.28200   0.71800   0.41250   1.000
    C115    C    0.96130   0.03870   0.05740   1.000
    O6      O    0.91578   0.08422   0.44760   1.000
    C116    C    0.79937   0.20063   0.44690   1.000
    H139    H    0.81930   0.18070   0.40970   1.000
    C117    C    0.73870   0.26130   0.44920   1.000
    H140    H    0.71800   0.28200   0.41250   1.000
    C118    C    0.03870   0.96130   0.05740   1.000
    O7      O    0.91578   0.91578   0.44760   1.000
    C119    C    0.79937   0.79937   0.44690   1.000
    H141    H    0.81930   0.81930   0.40970   1.000
    C120    C    0.73870   0.73870   0.44920   1.000
    H142    H    0.71800   0.71800   0.41250   1.000
    C121    C    0.03870   0.03870   0.05740   1.000
    O8      O    0.08422   0.08422   0.44760   1.000
    C122    C    0.20063   0.20063   0.44690   1.000
    H143    H    0.18070   0.18070   0.40970   1.000
    C123    C    0.26130   0.26130   0.44920   1.000
    H144    H    0.28200   0.28200   0.41250   1.000
    C124    C    0.96130   0.96130   0.05740   1.000
    N3      N    0.62090   0.50000   0.50000   1.000
    N4      N    0.37910   0.50000   0.50000   1.000
    N5      N    0.50000   0.62090   0.50000   1.000
    N6      N    0.50000   0.37910   0.50000   1.000
    C125    C    0.89420   0.89420   0.50000   1.000
    C126    C    0.82720   0.82720   0.50000   1.000
    C127    C    0.71020   0.71020   0.50000   1.000
    C128    C    0.64590   0.64590   0.50000   1.000
    C129    C    0.10580   0.10580   0.50000   1.000
    C130    C    0.17280   0.17280   0.50000   1.000
    C131    C    0.28980   0.28980   0.50000   1.000
    C132    C    0.35410   0.35410   0.50000   1.000
    C133    C    0.10580   0.89420   0.50000   1.000
    C134    C    0.17280   0.82720   0.50000   1.000
    C135    C    0.28980   0.71020   0.50000   1.000
    C136    C    0.35410   0.64590   0.50000   1.000
    C137    C    0.89420   0.10580   0.50000   1.000
    C138    C    0.82720   0.17280   0.50000   1.000
    C139    C    0.71020   0.28980   0.50000   1.000
    C140    C    0.64590   0.35410   0.50000   1.000
    C141    C    0.67150   0.56640   0.50000   1.000
    C142    C    0.75500   0.54110   0.50000   1.000
    H145    H    0.80090   0.57520   0.50000   1.000
    C143    C    0.32850   0.43360   0.50000   1.000
    C144    C    0.24500   0.45890   0.50000   1.000
    H146    H    0.19910   0.42480   0.50000   1.000
    C145    C    0.43360   0.67150   0.50000   1.000
    C146    C    0.45890   0.75500   0.50000   1.000
    H147    H    0.42480   0.80090   0.50000   1.000
    C147    C    0.56640   0.32850   0.50000   1.000
    C148    C    0.54110   0.24500   0.50000   1.000
    H148    H    0.57520   0.19910   0.50000   1.000
    C149    C    0.32850   0.56640   0.50000   1.000
    C150    C    0.24500   0.54110   0.50000   1.000
    H149    H    0.19910   0.57520   0.50000   1.000
    C151    C    0.67150   0.43360   0.50000   1.000
    C152    C    0.75500   0.45890   0.50000   1.000
    H150    H    0.80090   0.42480   0.50000   1.000
    C153    C    0.56640   0.67150   0.50000   1.000
    C154    C    0.54110   0.75500   0.50000   1.000
    H151    H    0.57520   0.80090   0.50000   1.000
    C155    C    0.43360   0.32850   0.50000   1.000
    C156    C    0.45890   0.24500   0.50000   1.000
    H152    H    0.42480   0.19910   0.50000   1.000
    N7      N    0.00000   0.95700   0.94600   1.000
    N8      N    0.00000   0.04300   0.94600   1.000
    N9      N    0.04300   0.00000   0.94600   1.000
    N10     N    0.95700   0.00000   0.94600   1.000
    N11     N    0.00000   0.95700   0.05400   1.000
    N12     N    0.00000   0.04300   0.05400   1.000
    N13     N    0.95700   0.00000   0.05400   1.000
    N14     N    0.04300   0.00000   0.05400   1.000
    C157    C    0.07600   0.07600   0.00000   1.000
    C158    C    0.18100   0.18100   0.00000   1.000
    C159    C    0.92400   0.92400   0.00000   1.000
    C160    C    0.81900   0.81900   0.00000   1.000
    C161    C    0.92400   0.07600   0.00000   1.000
    C162    C    0.81900   0.18100   0.00000   1.000
    C163    C    0.07600   0.92400   0.00000   1.000
    C164    C    0.18100   0.81900   0.00000   1.000
    B1      B    0.97900   0.90500   0.00000   1.000
    F1      F    0.01900   0.83100   0.00000   1.000
    F2      F    0.91200   0.85400   0.00000   1.000
    C165    C    0.09600   0.17000   0.00000   1.000
    H153    H    0.21510   0.13500   0.00000   1.000
    C166    C    0.21300   0.25900   0.00000   1.000
    H154    H    0.26960   0.26650   0.00000   1.000
    C167    C    0.16200   0.32700   0.00000   1.000
    H155    H    0.18370   0.37930   0.00000   1.000
    C168    C    0.07800   0.31600   0.00000   1.000
    H156    H    0.04310   0.36130   0.00000   1.000
    C169    C    0.04500   0.23800   0.00000   1.000
    H157    H    0.98850   0.23040   0.00000   1.000
    B2      B    0.02100   0.09500   0.00000   1.000
    F3      F    0.98100   0.16900   0.00000   1.000
    F4      F    0.08800   0.14600   0.00000   1.000
    C170    C    0.90400   0.83000   0.00000   1.000
    H158    H    0.78490   0.86500   0.00000   1.000
    C171    C    0.78700   0.74100   0.00000   1.000
    H159    H    0.73040   0.73350   0.00000   1.000
    C172    C    0.83800   0.67300   0.00000   1.000
    H160    H    0.81630   0.62070   0.00000   1.000
    C173    C    0.92200   0.68400   0.00000   1.000
    H161    H    0.95690   0.63870   0.00000   1.000
    C174    C    0.95500   0.76200   0.00000   1.000
    H162    H    0.01150   0.76960   0.00000   1.000
    B3      B    0.09500   0.97900   0.00000   1.000
    F5      F    0.16900   0.01900   0.00000   1.000
    F6      F    0.14600   0.91200   0.00000   1.000
    C175    C    0.83000   0.09600   0.00000   1.000
    H163    H    0.86500   0.21510   0.00000   1.000
    C176    C    0.74100   0.21300   0.00000   1.000
    H164    H    0.73350   0.26960   0.00000   1.000
    C177    C    0.67300   0.16200   0.00000   1.000
    H165    H    0.62070   0.18370   0.00000   1.000
    C178    C    0.68400   0.07800   0.00000   1.000
    H166    H    0.63870   0.04310   0.00000   1.000
    C179    C    0.76200   0.04500   0.00000   1.000
    H167    H    0.76960   0.98850   0.00000   1.000
    B4      B    0.90500   0.02100   0.00000   1.000
    F7      F    0.83100   0.98100   0.00000   1.000
    F8      F    0.85400   0.08800   0.00000   1.000
    C180    C    0.17000   0.90400   0.00000   1.000
    H168    H    0.13500   0.78490   0.00000   1.000
    C181    C    0.25900   0.78700   0.00000   1.000
    H169    H    0.26650   0.73040   0.00000   1.000
    C182    C    0.32700   0.83800   0.00000   1.000
    H170    H    0.37930   0.81630   0.00000   1.000
    C183    C    0.31600   0.92200   0.00000   1.000
    H171    H    0.36130   0.95690   0.00000   1.000
    C184    C    0.23800   0.95500   0.00000   1.000
    H172    H    0.23040   0.01150   0.00000   1.000
    B5      B    0.02100   0.90500   0.00000   1.000
    F9      F    0.98100   0.83100   0.00000   1.000
    F10     F    0.08800   0.85400   0.00000   1.000
    C185    C    0.90400   0.17000   0.00000   1.000
    H173    H    0.78490   0.13500   0.00000   1.000
    C186    C    0.78700   0.25900   0.00000   1.000
    H174    H    0.73040   0.26650   0.00000   1.000
    C187    C    0.83800   0.32700   0.00000   1.000
    H175    H    0.81630   0.37930   0.00000   1.000
    C188    C    0.92200   0.31600   0.00000   1.000
    H176    H    0.95690   0.36130   0.00000   1.000
    C189    C    0.95500   0.23800   0.00000   1.000
    H177    H    0.01150   0.23040   0.00000   1.000
    B6      B    0.97900   0.09500   0.00000   1.000
    F11     F    0.01900   0.16900   0.00000   1.000
    F12     F    0.91200   0.14600   0.00000   1.000
    C190    C    0.09600   0.83000   0.00000   1.000
    H178    H    0.21510   0.86500   0.00000   1.000
    C191    C    0.21300   0.74100   0.00000   1.000
    H179    H    0.26960   0.73350   0.00000   1.000
    C192    C    0.16200   0.67300   0.00000   1.000
    H180    H    0.18370   0.62070   0.00000   1.000
    C193    C    0.07800   0.68400   0.00000   1.000
    H181    H    0.04310   0.63870   0.00000   1.000
    C194    C    0.04500   0.76200   0.00000   1.000
    H182    H    0.98850   0.76960   0.00000   1.000
    B7      B    0.90500   0.97900   0.00000   1.000
    F13     F    0.83100   0.01900   0.00000   1.000
    F14     F    0.85400   0.91200   0.00000   1.000
    C195    C    0.17000   0.09600   0.00000   1.000
    H183    H    0.13500   0.21510   0.00000   1.000
    C196    C    0.25900   0.21300   0.00000   1.000
    H184    H    0.26650   0.26960   0.00000   1.000
    C197    C    0.32700   0.16200   0.00000   1.000
    H185    H    0.37930   0.18370   0.00000   1.000
    C198    C    0.31600   0.07800   0.00000   1.000
    H186    H    0.36130   0.04310   0.00000   1.000
    C199    C    0.23800   0.04500   0.00000   1.000
    H187    H    0.23040   0.98850   0.00000   1.000
    B8      B    0.09500   0.02100   0.00000   1.000
    F15     F    0.16900   0.98100   0.00000   1.000
    F16     F    0.14600   0.08800   0.00000   1.000
    C200    C    0.83000   0.90400   0.00000   1.000
    H188    H    0.86500   0.78490   0.00000   1.000
    C201    C    0.74100   0.78700   0.00000   1.000
    H189    H    0.73350   0.73040   0.00000   1.000
    C202    C    0.67300   0.83800   0.00000   1.000
    H190    H    0.62070   0.81630   0.00000   1.000
    C203    C    0.68400   0.92200   0.00000   1.000
    H191    H    0.63870   0.95690   0.00000   1.000
    C204    C    0.76200   0.95500   0.00000   1.000
    H192    H    0.76960   0.01150   0.00000   1.000
