# CIF file generated by openbabel 2.4.1, see http://openbabel.sf.net
data_I
_chemical_name_common 'image0'
_cell_length_a 7.2231
_cell_length_b 24.777
_cell_length_c 20.3178
_cell_angle_alpha 90
_cell_angle_beta 90
_cell_angle_gamma 90
_space_group_name_H-M_alt 'P 1'
_space_group_name_Hall 'P 1'
loop_
    _symmetry_equiv_pos_as_xyz
    x,y,z
loop_
    _atom_site_label
    _atom_site_type_symbol
    _atom_site_fract_x
    _atom_site_fract_y
    _atom_site_fract_z
    _atom_site_occupancy
    Eu1     Eu   0.76500   0.96222   0.01426   1.000
    Zn1     Zn   0.21980   0.90097   0.07597   1.000
    O1      O    0.10860   0.94915   0.01075   1.000
    H1      H    0.11110   0.93310   0.97380   1.000
    O2      O    0.34270   0.94242   0.14422   1.000
    O3      O    0.05110   0.85071   0.11659   1.000
    O4      O    0.78630   0.88822   0.08602   1.000
    C1      C    0.78220   0.79826   0.12664   1.000
    C2      C    0.87860   0.84996   0.10881   1.000
    C3      C    0.60300   0.79806   0.15147   1.000
    H2      H    0.54220   0.83060   0.15860   1.000
    H3      H    0.24300   0.72750   0.17050   1.000
    H4      H    0.27650   0.78620   0.19700   1.000
    H5      H    0.33130   0.73630   0.24020   1.000
    O5      O    0.34820   0.84628   0.02540   1.000
    C4      C    0.49520   0.85012   0.99300   1.000
    C5      C    0.58250   0.79851   0.97204   1.000
    O6      O    0.57050   0.89390   0.97744   1.000
    C6      C    0.43830   0.98263   0.12872   1.000
    O7      O    0.48481   0.99284   0.06901   1.000
    C7      C    0.49520   0.02012   0.18216   1.000
    C8      C    0.47450   0.00559   0.24749   1.000
    H6      H    0.42590   0.97210   0.25870   1.000
    C9      C    0.55730   0.07163   0.16601   1.000
    H7      H    0.56770   0.08130   0.12190   1.000
    C10     C    0.74920   0.79797   0.93893   1.000
    H8      H    0.80390   0.83050   0.92690   1.000
    C11     C    0.52790   0.04207   0.29626   1.000
    C12     C    0.60390   0.10871   0.21420   1.000
    C13     C    0.59350   0.09263   0.27897   1.000
    H9      H    0.63130   0.11630   0.31190   1.000
    C14     C    0.66170   0.16504   0.19615   1.000
    H10     H    0.55620   0.18850   0.19800   1.000
    H11     H    0.75420   0.17740   0.22650   1.000
    H12     H    0.71160   0.16520   0.15240   1.000
    C15     C    0.51370   0.02780   0.36752   1.000
    O8      O    0.62766   0.05036   0.40586   1.000
    O9      O    0.39090   0.99549   0.38555   1.000
    H13     H    0.10820   0.72920   0.91630   1.000
    H14     H    0.06690   0.78640   0.88670   1.000
    H15     H    0.01210   0.73440   0.84740   1.000
    H16     H    0.09470   0.73030   0.87570   1.000
    H17     H    0.02000   0.78650   0.85230   1.000
    H18     H    0.93200   0.73330   0.82480   1.000
    H19     H    0.12330   0.73300   0.94980   1.000
    H20     H    0.10830   0.78650   0.90900   1.000
    H21     H    0.09530   0.73050   0.87340   1.000
    Eu2     Eu   0.73500   0.03778   0.51426   1.000
    Zn2     Zn   0.28020   0.09903   0.57597   1.000
    O10     O    0.39140   0.05085   0.51075   1.000
    H22     H    0.38890   0.06690   0.47380   1.000
    O11     O    0.15730   0.05758   0.64422   1.000
    O12     O    0.44890   0.14929   0.61659   1.000
    O13     O    0.71370   0.11178   0.58602   1.000
    C16     C    0.71780   0.20174   0.62664   1.000
    C17     C    0.62140   0.15004   0.60881   1.000
    C18     C    0.89700   0.20194   0.65147   1.000
    H23     H    0.95780   0.16940   0.65860   1.000
    H24     H    0.25700   0.27250   0.67050   1.000
    H25     H    0.22350   0.21380   0.69700   1.000
    H26     H    0.16870   0.26370   0.74020   1.000
    O14     O    0.15180   0.15372   0.52540   1.000
    C19     C    0.00480   0.14988   0.49300   1.000
    C20     C    0.91750   0.20149   0.47204   1.000
    O15     O    0.92950   0.10610   0.47744   1.000
    C21     C    0.06170   0.01737   0.62872   1.000
    O16     O    0.01519   0.00716   0.56901   1.000
    C22     C    0.00480   0.97988   0.68216   1.000
    C23     C    0.02550   0.99441   0.74749   1.000
    H27     H    0.07410   0.02790   0.75870   1.000
    C24     C    0.94270   0.92837   0.66601   1.000
    H28     H    0.93230   0.91870   0.62190   1.000
    C25     C    0.75080   0.20203   0.43893   1.000
    H29     H    0.69610   0.16950   0.42690   1.000
    C26     C    0.97210   0.95793   0.79626   1.000
    C27     C    0.89610   0.89129   0.71420   1.000
    C28     C    0.90650   0.90737   0.77897   1.000
    H30     H    0.86870   0.88370   0.81190   1.000
    C29     C    0.83830   0.83496   0.69615   1.000
    H31     H    0.94380   0.81150   0.69800   1.000
    H32     H    0.74580   0.82260   0.72650   1.000
    H33     H    0.78840   0.83480   0.65240   1.000
    C30     C    0.98630   0.97220   0.86752   1.000
    O17     O    0.87234   0.94964   0.90586   1.000
    O18     O    0.10910   0.00451   0.88555   1.000
    H34     H    0.39180   0.27080   0.41630   1.000
    H35     H    0.43310   0.21360   0.38670   1.000
    H36     H    0.48790   0.26560   0.34740   1.000
    H37     H    0.40530   0.26970   0.37570   1.000
    H38     H    0.48000   0.21350   0.35230   1.000
    H39     H    0.56800   0.26670   0.32480   1.000
    H40     H    0.37670   0.26700   0.44980   1.000
    H41     H    0.39170   0.21350   0.40900   1.000
    H42     H    0.40470   0.26950   0.37340   1.000
    Eu3     Eu   0.23500   0.46222   0.98574   1.000
    Zn3     Zn   0.78020   0.40097   0.92403   1.000
    O19     O    0.89140   0.44915   0.98925   1.000
    H43     H    0.88890   0.43310   0.02620   1.000
    O20     O    0.65730   0.44242   0.85578   1.000
    O21     O    0.94890   0.35071   0.88341   1.000
    O22     O    0.21370   0.38822   0.91398   1.000
    C31     C    0.21780   0.29826   0.87336   1.000
    C32     C    0.12140   0.34996   0.89119   1.000
    C33     C    0.39700   0.29806   0.84853   1.000
    H44     H    0.45780   0.33060   0.84140   1.000
    H45     H    0.75700   0.22750   0.82950   1.000
    H46     H    0.72350   0.28620   0.80300   1.000
    H47     H    0.66870   0.23630   0.75980   1.000
    O23     O    0.65180   0.34628   0.97460   1.000
    C34     C    0.50480   0.35012   0.00700   1.000
    C35     C    0.41750   0.29851   0.02796   1.000
    O24     O    0.42950   0.39390   0.02256   1.000
    C36     C    0.56170   0.48263   0.87128   1.000
    O25     O    0.51519   0.49284   0.93099   1.000
    C37     C    0.50480   0.52012   0.81784   1.000
    C38     C    0.52550   0.50559   0.75251   1.000
    H48     H    0.57410   0.47210   0.74130   1.000
    C39     C    0.44270   0.57163   0.83399   1.000
    H49     H    0.43230   0.58130   0.87810   1.000
    C40     C    0.25080   0.29797   0.06107   1.000
    H50     H    0.19610   0.33050   0.07310   1.000
    C41     C    0.47210   0.54207   0.70374   1.000
    C42     C    0.39610   0.60871   0.78580   1.000
    C43     C    0.40650   0.59263   0.72103   1.000
    H51     H    0.36870   0.61630   0.68810   1.000
    C44     C    0.33830   0.66504   0.80385   1.000
    H52     H    0.44380   0.68850   0.80200   1.000
    H53     H    0.24580   0.67740   0.77350   1.000
    H54     H    0.28840   0.66520   0.84760   1.000
    C45     C    0.48630   0.52780   0.63248   1.000
    O26     O    0.37234   0.55036   0.59414   1.000
    O27     O    0.60910   0.49549   0.61445   1.000
    H55     H    0.89180   0.22920   0.08370   1.000
    H56     H    0.93310   0.28640   0.11330   1.000
    H57     H    0.98790   0.23440   0.15260   1.000
    H58     H    0.90530   0.23030   0.12430   1.000
    H59     H    0.98000   0.28650   0.14770   1.000
    H60     H    0.06800   0.23330   0.17520   1.000
    H61     H    0.87670   0.23300   0.05020   1.000
    H62     H    0.89170   0.28650   0.09100   1.000
    H63     H    0.90470   0.23050   0.12660   1.000
    Eu4     Eu   0.26500   0.53778   0.48574   1.000
    Zn4     Zn   0.71980   0.59903   0.42403   1.000
    O28     O    0.60860   0.55085   0.48925   1.000
    H64     H    0.61110   0.56690   0.52620   1.000
    O29     O    0.84270   0.55758   0.35578   1.000
    O30     O    0.55110   0.64929   0.38341   1.000
    O31     O    0.28630   0.61178   0.41398   1.000
    C46     C    0.28220   0.70174   0.37336   1.000
    C47     C    0.37860   0.65004   0.39119   1.000
    C48     C    0.10300   0.70194   0.34853   1.000
    H65     H    0.04220   0.66940   0.34140   1.000
    H66     H    0.74300   0.77250   0.32950   1.000
    H67     H    0.77650   0.71380   0.30300   1.000
    H68     H    0.83130   0.76370   0.25980   1.000
    O32     O    0.84820   0.65372   0.47460   1.000
    C49     C    0.99520   0.64988   0.50700   1.000
    C50     C    0.08250   0.70149   0.52796   1.000
    O33     O    0.07050   0.60610   0.52256   1.000
    C51     C    0.93830   0.51737   0.37128   1.000
    O34     O    0.98481   0.50716   0.43099   1.000
    C52     C    0.99520   0.47988   0.31784   1.000
    C53     C    0.97450   0.49441   0.25251   1.000
    H69     H    0.92590   0.52790   0.24130   1.000
    C54     C    0.05730   0.42837   0.33399   1.000
    H70     H    0.06770   0.41870   0.37810   1.000
    C55     C    0.24920   0.70203   0.56107   1.000
    H71     H    0.30390   0.66950   0.57310   1.000
    C56     C    0.02790   0.45793   0.20374   1.000
    C57     C    0.10390   0.39129   0.28580   1.000
    C58     C    0.09350   0.40737   0.22103   1.000
    H72     H    0.13130   0.38370   0.18810   1.000
    C59     C    0.16170   0.33496   0.30385   1.000
    H73     H    0.05620   0.31150   0.30200   1.000
    H74     H    0.25420   0.32260   0.27350   1.000
    H75     H    0.21160   0.33480   0.34760   1.000
    C60     C    0.01370   0.47220   0.13248   1.000
    O35     O    0.12766   0.44964   0.09414   1.000
    O36     O    0.89090   0.50451   0.11445   1.000
    H76     H    0.60820   0.77080   0.58370   1.000
    H77     H    0.56690   0.71360   0.61330   1.000
    H78     H    0.51210   0.76560   0.65260   1.000
    H79     H    0.59470   0.76970   0.62430   1.000
    H80     H    0.52000   0.71350   0.64770   1.000
    H81     H    0.43200   0.76670   0.67520   1.000
    H82     H    0.62330   0.76700   0.55020   1.000
    H83     H    0.60830   0.71350   0.59100   1.000
    H84     H    0.59530   0.76950   0.62660   1.000
    Eu5     Eu   0.23500   0.03778   0.98574   1.000
    Zn5     Zn   0.78020   0.09903   0.92403   1.000
    O37     O    0.89140   0.05085   0.98925   1.000
    H85     H    0.88890   0.06690   0.02620   1.000
    O38     O    0.65730   0.05758   0.85578   1.000
    O39     O    0.94890   0.14929   0.88341   1.000
    O40     O    0.21370   0.11178   0.91398   1.000
    C61     C    0.21780   0.20174   0.87336   1.000
    C62     C    0.12140   0.15004   0.89119   1.000
    C63     C    0.39700   0.20194   0.84853   1.000
    H86     H    0.45780   0.16940   0.84140   1.000
    H87     H    0.75700   0.27250   0.82950   1.000
    H88     H    0.72350   0.21380   0.80300   1.000
    H89     H    0.66870   0.26370   0.75980   1.000
    O41     O    0.65180   0.15372   0.97460   1.000
    C64     C    0.50480   0.14988   0.00700   1.000
    C65     C    0.41750   0.20149   0.02796   1.000
    O42     O    0.42950   0.10610   0.02256   1.000
    C66     C    0.56170   0.01737   0.87128   1.000
    O43     O    0.51519   0.00716   0.93099   1.000
    C67     C    0.50480   0.97988   0.81784   1.000
    C68     C    0.52550   0.99441   0.75251   1.000
    H90     H    0.57410   0.02790   0.74130   1.000
    C69     C    0.44270   0.92837   0.83399   1.000
    H91     H    0.43230   0.91870   0.87810   1.000
    C70     C    0.25080   0.20203   0.06107   1.000
    H92     H    0.19610   0.16950   0.07310   1.000
    C71     C    0.47210   0.95793   0.70374   1.000
    C72     C    0.39610   0.89129   0.78580   1.000
    C73     C    0.40650   0.90737   0.72103   1.000
    H93     H    0.36870   0.88370   0.68810   1.000
    C74     C    0.33830   0.83496   0.80385   1.000
    H94     H    0.44380   0.81150   0.80200   1.000
    H95     H    0.24580   0.82260   0.77350   1.000
    H96     H    0.28840   0.83480   0.84760   1.000
    C75     C    0.48630   0.97220   0.63248   1.000
    O44     O    0.37234   0.94964   0.59414   1.000
    O45     O    0.60910   0.00451   0.61445   1.000
    H97     H    0.89180   0.27080   0.08370   1.000
    H98     H    0.93310   0.21360   0.11330   1.000
    H99     H    0.98790   0.26560   0.15260   1.000
    H100    H    0.90530   0.26970   0.12430   1.000
    H101    H    0.98000   0.21350   0.14770   1.000
    H102    H    0.06800   0.26670   0.17520   1.000
    H103    H    0.87670   0.26700   0.05020   1.000
    H104    H    0.89170   0.21350   0.09100   1.000
    H105    H    0.90470   0.26950   0.12660   1.000
    Eu6     Eu   0.26500   0.96222   0.48574   1.000
    Zn6     Zn   0.71980   0.90097   0.42403   1.000
    O46     O    0.60860   0.94915   0.48925   1.000
    H106    H    0.61110   0.93310   0.52620   1.000
    O47     O    0.84270   0.94242   0.35578   1.000
    O48     O    0.55110   0.85071   0.38341   1.000
    O49     O    0.28630   0.88822   0.41398   1.000
    C76     C    0.28220   0.79826   0.37336   1.000
    C77     C    0.37860   0.84996   0.39119   1.000
    C78     C    0.10300   0.79806   0.34853   1.000
    H107    H    0.04220   0.83060   0.34140   1.000
    H108    H    0.74300   0.72750   0.32950   1.000
    H109    H    0.77650   0.78620   0.30300   1.000
    H110    H    0.83130   0.73630   0.25980   1.000
    O50     O    0.84820   0.84628   0.47460   1.000
    C79     C    0.99520   0.85012   0.50700   1.000
    C80     C    0.08250   0.79851   0.52796   1.000
    O51     O    0.07050   0.89390   0.52256   1.000
    C81     C    0.93830   0.98263   0.37128   1.000
    O52     O    0.98481   0.99284   0.43099   1.000
    C82     C    0.99520   0.02012   0.31784   1.000
    C83     C    0.97450   0.00559   0.25251   1.000
    H111    H    0.92590   0.97210   0.24130   1.000
    C84     C    0.05730   0.07163   0.33399   1.000
    H112    H    0.06770   0.08130   0.37810   1.000
    C85     C    0.24920   0.79797   0.56107   1.000
    H113    H    0.30390   0.83050   0.57310   1.000
    C86     C    0.02790   0.04207   0.20374   1.000
    C87     C    0.10390   0.10871   0.28580   1.000
    C88     C    0.09350   0.09263   0.22103   1.000
    H114    H    0.13130   0.11630   0.18810   1.000
    C89     C    0.16170   0.16504   0.30385   1.000
    H115    H    0.05620   0.18850   0.30200   1.000
    H116    H    0.25420   0.17740   0.27350   1.000
    H117    H    0.21160   0.16520   0.34760   1.000
    C90     C    0.01370   0.02780   0.13248   1.000
    O53     O    0.12766   0.05036   0.09414   1.000
    O54     O    0.89090   0.99549   0.11445   1.000
    H118    H    0.60820   0.72920   0.58370   1.000
    H119    H    0.56690   0.78640   0.61330   1.000
    H120    H    0.51210   0.73440   0.65260   1.000
    H121    H    0.59470   0.73030   0.62430   1.000
    H122    H    0.52000   0.78650   0.64770   1.000
    H123    H    0.43200   0.73330   0.67520   1.000
    H124    H    0.62330   0.73300   0.55020   1.000
    H125    H    0.60830   0.78650   0.59100   1.000
    H126    H    0.59530   0.73050   0.62660   1.000
    Eu7     Eu   0.76500   0.53778   0.01426   1.000
    Zn7     Zn   0.21980   0.59903   0.07597   1.000
    O55     O    0.10860   0.55085   0.01075   1.000
    H127    H    0.11110   0.56690   0.97380   1.000
    O56     O    0.34270   0.55758   0.14422   1.000
    O57     O    0.05110   0.64929   0.11659   1.000
    O58     O    0.78630   0.61178   0.08602   1.000
    C91     C    0.78220   0.70174   0.12664   1.000
    C92     C    0.87860   0.65004   0.10881   1.000
    C93     C    0.60300   0.70194   0.15147   1.000
    H128    H    0.54220   0.66940   0.15860   1.000
    H129    H    0.24300   0.77250   0.17050   1.000
    H130    H    0.27650   0.71380   0.19700   1.000
    H131    H    0.33130   0.76370   0.24020   1.000
    O59     O    0.34820   0.65372   0.02540   1.000
    C94     C    0.49520   0.64988   0.99300   1.000
    C95     C    0.58250   0.70149   0.97204   1.000
    O60     O    0.57050   0.60610   0.97744   1.000
    C96     C    0.43830   0.51737   0.12872   1.000
    O61     O    0.48481   0.50716   0.06901   1.000
    C97     C    0.49520   0.47988   0.18216   1.000
    C98     C    0.47450   0.49441   0.24749   1.000
    H132    H    0.42590   0.52790   0.25870   1.000
    C99     C    0.55730   0.42837   0.16601   1.000
    H133    H    0.56770   0.41870   0.12190   1.000
    C100    C    0.74920   0.70203   0.93893   1.000
    H134    H    0.80390   0.66950   0.92690   1.000
    C101    C    0.52790   0.45793   0.29626   1.000
    C102    C    0.60390   0.39129   0.21420   1.000
    C103    C    0.59350   0.40737   0.27897   1.000
    H135    H    0.63130   0.38370   0.31190   1.000
    C104    C    0.66170   0.33496   0.19615   1.000
    H136    H    0.55620   0.31150   0.19800   1.000
    H137    H    0.75420   0.32260   0.22650   1.000
    H138    H    0.71160   0.33480   0.15240   1.000
    C105    C    0.51370   0.47220   0.36752   1.000
    O62     O    0.62766   0.44964   0.40586   1.000
    O63     O    0.39090   0.50451   0.38555   1.000
    H139    H    0.10820   0.77080   0.91630   1.000
    H140    H    0.06690   0.71360   0.88670   1.000
    H141    H    0.01210   0.76560   0.84740   1.000
    H142    H    0.09470   0.76970   0.87570   1.000
    H143    H    0.02000   0.71350   0.85230   1.000
    H144    H    0.93200   0.76670   0.82480   1.000
    H145    H    0.12330   0.76700   0.94980   1.000
    H146    H    0.10830   0.71350   0.90900   1.000
    H147    H    0.09530   0.76950   0.87340   1.000
    Eu8     Eu   0.73500   0.46222   0.51426   1.000
    Zn8     Zn   0.28020   0.40097   0.57597   1.000
    O64     O    0.39140   0.44915   0.51075   1.000
    H148    H    0.38890   0.43310   0.47380   1.000
    O65     O    0.15730   0.44242   0.64422   1.000
    O66     O    0.44890   0.35071   0.61659   1.000
    O67     O    0.71370   0.38822   0.58602   1.000
    C106    C    0.71780   0.29826   0.62664   1.000
    C107    C    0.62140   0.34996   0.60881   1.000
    C108    C    0.89700   0.29806   0.65147   1.000
    H149    H    0.95780   0.33060   0.65860   1.000
    H150    H    0.25700   0.22750   0.67050   1.000
    H151    H    0.22350   0.28620   0.69700   1.000
    H152    H    0.16870   0.23630   0.74020   1.000
    O68     O    0.15180   0.34628   0.52540   1.000
    C109    C    0.00480   0.35012   0.49300   1.000
    C110    C    0.91750   0.29851   0.47204   1.000
    O69     O    0.92950   0.39390   0.47744   1.000
    C111    C    0.06170   0.48263   0.62872   1.000
    O70     O    0.01519   0.49284   0.56901   1.000
    C112    C    0.00480   0.52012   0.68216   1.000
    C113    C    0.02550   0.50559   0.74749   1.000
    H153    H    0.07410   0.47210   0.75870   1.000
    C114    C    0.94270   0.57163   0.66601   1.000
    H154    H    0.93230   0.58130   0.62190   1.000
    C115    C    0.75080   0.29797   0.43893   1.000
    H155    H    0.69610   0.33050   0.42690   1.000
    C116    C    0.97210   0.54207   0.79626   1.000
    C117    C    0.89610   0.60871   0.71420   1.000
    C118    C    0.90650   0.59263   0.77897   1.000
    H156    H    0.86870   0.61630   0.81190   1.000
    C119    C    0.83830   0.66504   0.69615   1.000
    H157    H    0.94380   0.68850   0.69800   1.000
    H158    H    0.74580   0.67740   0.72650   1.000
    H159    H    0.78840   0.66520   0.65240   1.000
    C120    C    0.98630   0.52780   0.86752   1.000
    O71     O    0.87234   0.55036   0.90586   1.000
    O72     O    0.10910   0.49549   0.88555   1.000
    H160    H    0.39180   0.22920   0.41630   1.000
    H161    H    0.43310   0.28640   0.38670   1.000
    H162    H    0.48790   0.23440   0.34740   1.000
    H163    H    0.40530   0.23030   0.37570   1.000
    H164    H    0.48000   0.28650   0.35230   1.000
    H165    H    0.56800   0.23330   0.32480   1.000
    H166    H    0.37670   0.23300   0.44980   1.000
    H167    H    0.39170   0.28650   0.40900   1.000
    H168    H    0.40470   0.23050   0.37340   1.000
    C121    C    0.87340   0.75000   0.11546   1.000
    H169    H    0.99510   0.75000   0.10050   1.000
    C122    C    0.51360   0.75000   0.16575   1.000
    C123    C    0.32400   0.75000   0.19609   1.000
    C124    C    0.49960   0.75000   0.98886   1.000
    H170    H    0.38780   0.75000   0.01160   1.000
    C125    C    0.83620   0.75000   0.92330   1.000
    C126    C    0.02270   0.75000   0.89040   1.000
    C127    C    0.98600   0.75000   0.86280   1.000
    C128    C    0.06500   0.75000   0.91280   1.000
    C129    C    0.62660   0.25000   0.61546   1.000
    H171    H    0.50490   0.25000   0.60050   1.000
    C130    C    0.98640   0.25000   0.66575   1.000
    C131    C    0.17600   0.25000   0.69609   1.000
    C132    C    0.00040   0.25000   0.48886   1.000
    H172    H    0.11220   0.25000   0.51160   1.000
    C133    C    0.66380   0.25000   0.42330   1.000
    C134    C    0.47730   0.25000   0.39040   1.000
    C135    C    0.51400   0.25000   0.36280   1.000
    C136    C    0.43500   0.25000   0.41280   1.000
    C137    C    0.12660   0.25000   0.88454   1.000
    H173    H    0.00490   0.25000   0.89950   1.000
    C138    C    0.48640   0.25000   0.83425   1.000
    C139    C    0.67600   0.25000   0.80391   1.000
    C140    C    0.50040   0.25000   0.01114   1.000
    H174    H    0.61220   0.25000   0.98840   1.000
    C141    C    0.16380   0.25000   0.07670   1.000
    C142    C    0.97730   0.25000   0.10960   1.000
    C143    C    0.01400   0.25000   0.13720   1.000
    C144    C    0.93500   0.25000   0.08720   1.000
    C145    C    0.37340   0.75000   0.38454   1.000
    H175    H    0.49510   0.75000   0.39950   1.000
    C146    C    0.01360   0.75000   0.33425   1.000
    C147    C    0.82400   0.75000   0.30391   1.000
    C148    C    0.99960   0.75000   0.51114   1.000
    H176    H    0.88780   0.75000   0.48840   1.000
    C149    C    0.33620   0.75000   0.57670   1.000
    C150    C    0.52270   0.75000   0.60960   1.000
    C151    C    0.48600   0.75000   0.63720   1.000
    C152    C    0.56500   0.75000   0.58720   1.000
