# CIF file generated by openbabel 2.4.1, see http://openbabel.sf.net
data_I
_chemical_name_common 'image0'
_cell_length_a 20.096
_cell_length_b 20.096
_cell_length_c 16.372
_cell_angle_alpha 90
_cell_angle_beta 90
_cell_angle_gamma 120
_space_group_name_H-M_alt 'P 1'
_space_group_name_Hall 'P 1'
loop_
    _symmetry_equiv_pos_as_xyz
    x,y,z
loop_
    _atom_site_label
    _atom_site_type_symbol
    _atom_site_fract_x
    _atom_site_fract_y
    _atom_site_fract_z
    _atom_site_occupancy
    O1      O    0.22210   0.07830   0.05970   1.000
    C1      C    0.38240   0.23230   0.94770   1.000
    H1      H    0.35510   0.24710   0.91070   1.000
    C2      C    0.46210   0.27240   0.94820   1.000
    H2      H    0.48970   0.31470   0.91130   1.000
    C3      C    0.06930   0.83910   0.30100   1.000
    H3      H    0.11030   0.86320   0.26200   1.000
    C4      C    0.07810   0.80430   0.37030   1.000
    H4      H    0.12530   0.80440   0.37940   1.000
    C5      C    0.01790   0.76810   0.42570   1.000
    C6      C    0.94890   0.76650   0.41210   1.000
    H5      H    0.90790   0.74240   0.45120   1.000
    C7      C    0.93970   0.80120   0.34290   1.000
    H6      H    0.89240   0.80110   0.33390   1.000
    O2      O    0.92170   0.14380   0.05970   1.000
    C8      C    0.76770   0.15010   0.94770   1.000
    H7      H    0.75290   0.10800   0.91070   1.000
    C9      C    0.72760   0.18970   0.94820   1.000
    H8      H    0.68530   0.17500   0.91130   1.000
    C10     C    0.16090   0.23020   0.30100   1.000
    H9      H    0.13680   0.24710   0.26200   1.000
    C11     C    0.19570   0.27380   0.37030   1.000
    H10     H    0.19560   0.32090   0.37940   1.000
    C12     C    0.23190   0.24980   0.42570   1.000
    C13     C    0.23350   0.18240   0.41210   1.000
    H11     H    0.25760   0.16550   0.45120   1.000
    C14     C    0.19880   0.13850   0.34290   1.000
    H12     H    0.19890   0.09130   0.33390   1.000
    O3      O    0.85620   0.77790   0.05970   1.000
    C15     C    0.84990   0.61760   0.94770   1.000
    H13     H    0.89200   0.64490   0.91070   1.000
    C16     C    0.81030   0.53790   0.94820   1.000
    H14     H    0.82500   0.51030   0.91130   1.000
    C17     C    0.76980   0.93070   0.30100   1.000
    H15     H    0.75290   0.88970   0.26200   1.000
    C18     C    0.72620   0.92190   0.37030   1.000
    H16     H    0.67910   0.87470   0.37940   1.000
    C19     C    0.75020   0.98210   0.42570   1.000
    C20     C    0.81760   0.05110   0.41210   1.000
    H17     H    0.83450   0.09210   0.45120   1.000
    C21     C    0.86150   0.06030   0.34290   1.000
    H18     H    0.90870   0.10760   0.33390   1.000
    O4      O    0.77790   0.92170   0.05970   1.000
    C22     C    0.61760   0.76770   0.94770   1.000
    H19     H    0.64490   0.75290   0.91070   1.000
    C23     C    0.53790   0.72760   0.94820   1.000
    H20     H    0.51030   0.68530   0.91130   1.000
    C24     C    0.93070   0.16090   0.30100   1.000
    H21     H    0.88970   0.13680   0.26200   1.000
    C25     C    0.92190   0.19570   0.37030   1.000
    H22     H    0.87470   0.19560   0.37940   1.000
    C26     C    0.98210   0.23190   0.42570   1.000
    C27     C    0.05110   0.23350   0.41210   1.000
    H23     H    0.09210   0.25760   0.45120   1.000
    C28     C    0.06030   0.19880   0.34290   1.000
    H24     H    0.10760   0.19890   0.33390   1.000
    O5      O    0.07830   0.85620   0.05970   1.000
    C29     C    0.23230   0.84990   0.94770   1.000
    H25     H    0.24710   0.89200   0.91070   1.000
    C30     C    0.27240   0.81030   0.94820   1.000
    H26     H    0.31470   0.82500   0.91130   1.000
    C31     C    0.83910   0.76980   0.30100   1.000
    H27     H    0.86320   0.75290   0.26200   1.000
    C32     C    0.80430   0.72620   0.37030   1.000
    H28     H    0.80440   0.67910   0.37940   1.000
    C33     C    0.76810   0.75020   0.42570   1.000
    C34     C    0.76650   0.81760   0.41210   1.000
    H29     H    0.74240   0.83450   0.45120   1.000
    C35     C    0.80120   0.86150   0.34290   1.000
    H30     H    0.80110   0.90870   0.33390   1.000
    O6      O    0.14380   0.22210   0.05970   1.000
    C36     C    0.15010   0.38240   0.94770   1.000
    H31     H    0.10800   0.35510   0.91070   1.000
    C37     C    0.18970   0.46210   0.94820   1.000
    H32     H    0.17500   0.48970   0.91130   1.000
    C38     C    0.23020   0.06930   0.30100   1.000
    H33     H    0.24710   0.11030   0.26200   1.000
    C39     C    0.27380   0.07810   0.37030   1.000
    H34     H    0.32090   0.12530   0.37940   1.000
    C40     C    0.24980   0.01790   0.42570   1.000
    C41     C    0.18240   0.94890   0.41210   1.000
    H35     H    0.16550   0.90790   0.45120   1.000
    C42     C    0.13850   0.93970   0.34290   1.000
    H36     H    0.09130   0.89240   0.33390   1.000
    O7      O    0.07830   0.22210   0.94030   1.000
    C43     C    0.23230   0.38240   0.05230   1.000
    H37     H    0.24710   0.35510   0.08930   1.000
    C44     C    0.27240   0.46210   0.05180   1.000
    H38     H    0.31470   0.48970   0.08870   1.000
    C45     C    0.83910   0.06930   0.69900   1.000
    H39     H    0.86320   0.11030   0.73800   1.000
    C46     C    0.80430   0.07810   0.62970   1.000
    H40     H    0.80440   0.12530   0.62060   1.000
    C47     C    0.76810   0.01790   0.57430   1.000
    C48     C    0.76650   0.94890   0.58790   1.000
    H41     H    0.74240   0.90790   0.54880   1.000
    C49     C    0.80120   0.93970   0.65710   1.000
    H42     H    0.80110   0.89240   0.66610   1.000
    O8      O    0.14380   0.92170   0.94030   1.000
    C50     C    0.15010   0.76770   0.05230   1.000
    H43     H    0.10800   0.75290   0.08930   1.000
    C51     C    0.18970   0.72760   0.05180   1.000
    H44     H    0.17500   0.68530   0.08870   1.000
    C52     C    0.23020   0.16090   0.69900   1.000
    H45     H    0.24710   0.13680   0.73800   1.000
    C53     C    0.27380   0.19570   0.62970   1.000
    H46     H    0.32090   0.19560   0.62060   1.000
    C54     C    0.24980   0.23190   0.57430   1.000
    C55     C    0.18240   0.23350   0.58790   1.000
    H47     H    0.16550   0.25760   0.54880   1.000
    C56     C    0.13850   0.19880   0.65710   1.000
    H48     H    0.09130   0.19890   0.66610   1.000
    O9      O    0.77790   0.85620   0.94030   1.000
    C57     C    0.61760   0.84990   0.05230   1.000
    H49     H    0.64490   0.89200   0.08930   1.000
    C58     C    0.53790   0.81030   0.05180   1.000
    H50     H    0.51030   0.82500   0.08870   1.000
    C59     C    0.93070   0.76980   0.69900   1.000
    H51     H    0.88970   0.75290   0.73800   1.000
    C60     C    0.92190   0.72620   0.62970   1.000
    H52     H    0.87470   0.67910   0.62060   1.000
    C61     C    0.98210   0.75020   0.57430   1.000
    C62     C    0.05110   0.81760   0.58790   1.000
    H53     H    0.09210   0.83450   0.54880   1.000
    C63     C    0.06030   0.86150   0.65710   1.000
    H54     H    0.10760   0.90870   0.66610   1.000
    O10     O    0.92170   0.77790   0.94030   1.000
    C64     C    0.76770   0.61760   0.05230   1.000
    H55     H    0.75290   0.64490   0.08930   1.000
    C65     C    0.72760   0.53790   0.05180   1.000
    H56     H    0.68530   0.51030   0.08870   1.000
    C66     C    0.16090   0.93070   0.69900   1.000
    H57     H    0.13680   0.88970   0.73800   1.000
    C67     C    0.19570   0.92190   0.62970   1.000
    H58     H    0.19560   0.87470   0.62060   1.000
    C68     C    0.23190   0.98210   0.57430   1.000
    C69     C    0.23350   0.05110   0.58790   1.000
    H59     H    0.25760   0.09210   0.54880   1.000
    C70     C    0.19880   0.06030   0.65710   1.000
    H60     H    0.19890   0.10760   0.66610   1.000
    O11     O    0.85620   0.07830   0.94030   1.000
    C71     C    0.84990   0.23230   0.05230   1.000
    H61     H    0.89200   0.24710   0.08930   1.000
    C72     C    0.81030   0.27240   0.05180   1.000
    H62     H    0.82500   0.31470   0.08870   1.000
    C73     C    0.76980   0.83910   0.69900   1.000
    H63     H    0.75290   0.86320   0.73800   1.000
    C74     C    0.72620   0.80430   0.62970   1.000
    H64     H    0.67910   0.80440   0.62060   1.000
    C75     C    0.75020   0.76810   0.57430   1.000
    C76     C    0.81760   0.76650   0.58790   1.000
    H65     H    0.83450   0.74240   0.54880   1.000
    C77     C    0.86150   0.80120   0.65710   1.000
    H66     H    0.90870   0.80110   0.66610   1.000
    O12     O    0.22210   0.14380   0.94030   1.000
    C78     C    0.38240   0.15010   0.05230   1.000
    H67     H    0.35510   0.10800   0.08930   1.000
    C79     C    0.46210   0.18970   0.05180   1.000
    H68     H    0.48970   0.17500   0.08870   1.000
    C80     C    0.06930   0.23020   0.69900   1.000
    H69     H    0.11030   0.24710   0.73800   1.000
    C81     C    0.07810   0.27380   0.62970   1.000
    H70     H    0.12530   0.32090   0.62060   1.000
    C82     C    0.01790   0.24980   0.57430   1.000
    C83     C    0.94890   0.18240   0.58790   1.000
    H71     H    0.90790   0.16550   0.54880   1.000
    C84     C    0.93970   0.13850   0.65710   1.000
    H72     H    0.89240   0.09130   0.66610   1.000
    O13     O    0.77790   0.92170   0.94030   1.000
    C85     C    0.61760   0.76770   0.05230   1.000
    H73     H    0.64490   0.75290   0.08930   1.000
    C86     C    0.53790   0.72760   0.05180   1.000
    H74     H    0.51030   0.68530   0.08870   1.000
    C87     C    0.93070   0.16090   0.69900   1.000
    H75     H    0.88970   0.13680   0.73800   1.000
    C88     C    0.92190   0.19570   0.62970   1.000
    H76     H    0.87470   0.19560   0.62060   1.000
    C89     C    0.98210   0.23190   0.57430   1.000
    C90     C    0.05110   0.23350   0.58790   1.000
    H77     H    0.09210   0.25760   0.54880   1.000
    C91     C    0.06030   0.19880   0.65710   1.000
    H78     H    0.10760   0.19890   0.66610   1.000
    O14     O    0.07830   0.85620   0.94030   1.000
    C92     C    0.23230   0.84990   0.05230   1.000
    H79     H    0.24710   0.89200   0.08930   1.000
    C93     C    0.27240   0.81030   0.05180   1.000
    H80     H    0.31470   0.82500   0.08870   1.000
    C94     C    0.83910   0.76980   0.69900   1.000
    H81     H    0.86320   0.75290   0.73800   1.000
    C95     C    0.80430   0.72620   0.62970   1.000
    H82     H    0.80440   0.67910   0.62060   1.000
    C96     C    0.76810   0.75020   0.57430   1.000
    C97     C    0.76650   0.81760   0.58790   1.000
    H83     H    0.74240   0.83450   0.54880   1.000
    C98     C    0.80120   0.86150   0.65710   1.000
    H84     H    0.80110   0.90870   0.66610   1.000
    O15     O    0.14380   0.22210   0.94030   1.000
    C99     C    0.15010   0.38240   0.05230   1.000
    H85     H    0.10800   0.35510   0.08930   1.000
    C100    C    0.18970   0.46210   0.05180   1.000
    H86     H    0.17500   0.48970   0.08870   1.000
    C101    C    0.23020   0.06930   0.69900   1.000
    H87     H    0.24710   0.11030   0.73800   1.000
    C102    C    0.27380   0.07810   0.62970   1.000
    H88     H    0.32090   0.12530   0.62060   1.000
    C103    C    0.24980   0.01790   0.57430   1.000
    C104    C    0.18240   0.94890   0.58790   1.000
    H89     H    0.16550   0.90790   0.54880   1.000
    C105    C    0.13850   0.93970   0.65710   1.000
    H90     H    0.09130   0.89240   0.66610   1.000
    O16     O    0.22210   0.07830   0.94030   1.000
    C106    C    0.38240   0.23230   0.05230   1.000
    H91     H    0.35510   0.24710   0.08930   1.000
    C107    C    0.46210   0.27240   0.05180   1.000
    H92     H    0.48970   0.31470   0.08870   1.000
    C108    C    0.06930   0.83910   0.69900   1.000
    H93     H    0.11030   0.86320   0.73800   1.000
    C109    C    0.07810   0.80430   0.62970   1.000
    H94     H    0.12530   0.80440   0.62060   1.000
    C110    C    0.01790   0.76810   0.57430   1.000
    C111    C    0.94890   0.76650   0.58790   1.000
    H95     H    0.90790   0.74240   0.54880   1.000
    C112    C    0.93970   0.80120   0.65710   1.000
    H96     H    0.89240   0.80110   0.66610   1.000
    O17     O    0.92170   0.14380   0.94030   1.000
    C113    C    0.76770   0.15010   0.05230   1.000
    H97     H    0.75290   0.10800   0.08930   1.000
    C114    C    0.72760   0.18970   0.05180   1.000
    H98     H    0.68530   0.17500   0.08870   1.000
    C115    C    0.16090   0.23020   0.69900   1.000
    H99     H    0.13680   0.24710   0.73800   1.000
    C116    C    0.19570   0.27380   0.62970   1.000
    H100    H    0.19560   0.32090   0.62060   1.000
    C117    C    0.23190   0.24980   0.57430   1.000
    C118    C    0.23350   0.18240   0.58790   1.000
    H101    H    0.25760   0.16550   0.54880   1.000
    C119    C    0.19880   0.13850   0.65710   1.000
    H102    H    0.19890   0.09130   0.66610   1.000
    O18     O    0.85620   0.77790   0.94030   1.000
    C120    C    0.84990   0.61760   0.05230   1.000
    H103    H    0.89200   0.64490   0.08930   1.000
    C121    C    0.81030   0.53790   0.05180   1.000
    H104    H    0.82500   0.51030   0.08870   1.000
    C122    C    0.76980   0.93070   0.69900   1.000
    H105    H    0.75290   0.88970   0.73800   1.000
    C123    C    0.72620   0.92190   0.62970   1.000
    H106    H    0.67910   0.87470   0.62060   1.000
    C124    C    0.75020   0.98210   0.57430   1.000
    C125    C    0.81760   0.05110   0.58790   1.000
    H107    H    0.83450   0.09210   0.54880   1.000
    C126    C    0.86150   0.06030   0.65710   1.000
    H108    H    0.90870   0.10760   0.66610   1.000
    O19     O    0.92170   0.77790   0.05970   1.000
    C127    C    0.76770   0.61760   0.94770   1.000
    H109    H    0.75290   0.64490   0.91070   1.000
    C128    C    0.72760   0.53790   0.94820   1.000
    H110    H    0.68530   0.51030   0.91130   1.000
    C129    C    0.16090   0.93070   0.30100   1.000
    H111    H    0.13680   0.88970   0.26200   1.000
    C130    C    0.19570   0.92190   0.37030   1.000
    H112    H    0.19560   0.87470   0.37940   1.000
    C131    C    0.23190   0.98210   0.42570   1.000
    C132    C    0.23350   0.05110   0.41210   1.000
    H113    H    0.25760   0.09210   0.45120   1.000
    C133    C    0.19880   0.06030   0.34290   1.000
    H114    H    0.19890   0.10760   0.33390   1.000
    O20     O    0.85620   0.07830   0.05970   1.000
    C134    C    0.84990   0.23230   0.94770   1.000
    H115    H    0.89200   0.24710   0.91070   1.000
    C135    C    0.81030   0.27240   0.94820   1.000
    H116    H    0.82500   0.31470   0.91130   1.000
    C136    C    0.76980   0.83910   0.30100   1.000
    H117    H    0.75290   0.86320   0.26200   1.000
    C137    C    0.72620   0.80430   0.37030   1.000
    H118    H    0.67910   0.80440   0.37940   1.000
    C138    C    0.75020   0.76810   0.42570   1.000
    C139    C    0.81760   0.76650   0.41210   1.000
    H119    H    0.83450   0.74240   0.45120   1.000
    C140    C    0.86150   0.80120   0.34290   1.000
    H120    H    0.90870   0.80110   0.33390   1.000
    O21     O    0.22210   0.14380   0.05970   1.000
    C141    C    0.38240   0.15010   0.94770   1.000
    H121    H    0.35510   0.10800   0.91070   1.000
    C142    C    0.46210   0.18970   0.94820   1.000
    H122    H    0.48970   0.17500   0.91130   1.000
    C143    C    0.06930   0.23020   0.30100   1.000
    H123    H    0.11030   0.24710   0.26200   1.000
    C144    C    0.07810   0.27380   0.37030   1.000
    H124    H    0.12530   0.32090   0.37940   1.000
    C145    C    0.01790   0.24980   0.42570   1.000
    C146    C    0.94890   0.18240   0.41210   1.000
    H125    H    0.90790   0.16550   0.45120   1.000
    C147    C    0.93970   0.13850   0.34290   1.000
    H126    H    0.89240   0.09130   0.33390   1.000
    O22     O    0.07830   0.22210   0.05970   1.000
    C148    C    0.23230   0.38240   0.94770   1.000
    H127    H    0.24710   0.35510   0.91070   1.000
    C149    C    0.27240   0.46210   0.94820   1.000
    H128    H    0.31470   0.48970   0.91130   1.000
    C150    C    0.83910   0.06930   0.30100   1.000
    H129    H    0.86320   0.11030   0.26200   1.000
    C151    C    0.80430   0.07810   0.37030   1.000
    H130    H    0.80440   0.12530   0.37940   1.000
    C152    C    0.76810   0.01790   0.42570   1.000
    C153    C    0.76650   0.94890   0.41210   1.000
    H131    H    0.74240   0.90790   0.45120   1.000
    C154    C    0.80120   0.93970   0.34290   1.000
    H132    H    0.80110   0.89240   0.33390   1.000
    O23     O    0.14380   0.92170   0.05970   1.000
    C155    C    0.15010   0.76770   0.94770   1.000
    H133    H    0.10800   0.75290   0.91070   1.000
    C156    C    0.18970   0.72760   0.94820   1.000
    H134    H    0.17500   0.68530   0.91130   1.000
    C157    C    0.23020   0.16090   0.30100   1.000
    H135    H    0.24710   0.13680   0.26200   1.000
    C158    C    0.27380   0.19570   0.37030   1.000
    H136    H    0.32090   0.19560   0.37940   1.000
    C159    C    0.24980   0.23190   0.42570   1.000
    C160    C    0.18240   0.23350   0.41210   1.000
    H137    H    0.16550   0.25760   0.45120   1.000
    C161    C    0.13850   0.19880   0.34290   1.000
    H138    H    0.09130   0.19890   0.33390   1.000
    O24     O    0.77790   0.85620   0.05970   1.000
    C162    C    0.61760   0.84990   0.94770   1.000
    H139    H    0.64490   0.89200   0.91070   1.000
    C163    C    0.53790   0.81030   0.94820   1.000
    H140    H    0.51030   0.82500   0.91130   1.000
    C164    C    0.93070   0.76980   0.30100   1.000
    H141    H    0.88970   0.75290   0.26200   1.000
    C165    C    0.92190   0.72620   0.37030   1.000
    H142    H    0.87470   0.67910   0.37940   1.000
    C166    C    0.98210   0.75020   0.42570   1.000
    C167    C    0.05110   0.81760   0.41210   1.000
    H143    H    0.09210   0.83450   0.45120   1.000
    C168    C    0.06030   0.86150   0.34290   1.000
    H144    H    0.10760   0.90870   0.33390   1.000
    Zr1     Zr   0.10260   0.00000   0.08530   1.000
    O25     O    0.09320   0.00000   0.04430   1.000
    Zr2     Zr   0.00000   0.10260   0.08530   1.000
    O26     O    0.00000   0.09320   0.04430   1.000
    Zr3     Zr   0.89740   0.89740   0.08530   1.000
    O27     O    0.90680   0.90680   0.04430   1.000
    Zr4     Zr   0.89740   0.00000   0.08530   1.000
    O28     O    0.90680   0.00000   0.04430   1.000
    Zr5     Zr   0.00000   0.89740   0.08530   1.000
    O29     O    0.00000   0.90680   0.04430   1.000
    Zr6     Zr   0.10260   0.10260   0.08530   1.000
    O30     O    0.09320   0.09320   0.04430   1.000
    Zr7     Zr   0.00000   0.10260   0.91470   1.000
    O31     O    0.00000   0.09320   0.95570   1.000
    Zr8     Zr   0.10260   0.00000   0.91470   1.000
    O32     O    0.09320   0.00000   0.95570   1.000
    Zr9     Zr   0.89740   0.89740   0.91470   1.000
    O33     O    0.90680   0.90680   0.95570   1.000
    Zr10    Zr   0.00000   0.89740   0.91470   1.000
    O34     O    0.00000   0.90680   0.95570   1.000
    Zr11    Zr   0.89740   0.00000   0.91470   1.000
    O35     O    0.90680   0.00000   0.95570   1.000
    Zr12    Zr   0.10260   0.10260   0.91470   1.000
    O36     O    0.09320   0.09320   0.95570   1.000
    O37     O    0.00000   0.00000   0.12500   1.000
    O38     O    0.00000   0.00000   0.87500   1.000
    C169    C    0.25330   0.12665   0.00000   1.000
    C170    C    0.34170   0.17085   0.00000   1.000
    C171    C    0.50280   0.25140   0.00000   1.000
    C172    C    0.58640   0.29320   0.00000   1.000
    C173    C    0.87335   0.12665   0.00000   1.000
    C174    C    0.82915   0.17085   0.00000   1.000
    C175    C    0.74860   0.25140   0.00000   1.000
    C176    C    0.70680   0.29320   0.00000   1.000
    C177    C    0.87335   0.74670   0.00000   1.000
    C178    C    0.82915   0.65830   0.00000   1.000
    C179    C    0.74860   0.49720   0.00000   1.000
    C180    C    0.70680   0.41360   0.00000   1.000
    C181    C    0.74670   0.87335   0.00000   1.000
    C182    C    0.65830   0.82915   0.00000   1.000
    C183    C    0.49720   0.74860   0.00000   1.000
    C184    C    0.41360   0.70680   0.00000   1.000
    C185    C    0.12665   0.87335   0.00000   1.000
    C186    C    0.17085   0.82915   0.00000   1.000
    C187    C    0.25140   0.74860   0.00000   1.000
    C188    C    0.29320   0.70680   0.00000   1.000
    C189    C    0.12665   0.25330   0.00000   1.000
    C190    C    0.17085   0.34170   0.00000   1.000
    C191    C    0.25140   0.50280   0.00000   1.000
    C192    C    0.29320   0.58640   0.00000   1.000
    C193    C    0.62675   0.25350   0.00000   1.000
    H145    H    0.59915   0.19830   0.00000   1.000
    C194    C    0.74650   0.37325   0.00000   1.000
    H146    H    0.80170   0.40085   0.00000   1.000
    C195    C    0.62675   0.37325   0.00000   1.000
    H147    H    0.59915   0.40085   0.00000   1.000
    C196    C    0.37325   0.74650   0.00000   1.000
    H148    H    0.40085   0.80170   0.00000   1.000
    C197    C    0.25350   0.62675   0.00000   1.000
    H149    H    0.19830   0.59915   0.00000   1.000
    C198    C    0.37325   0.62675   0.00000   1.000
    H150    H    0.40085   0.59915   0.00000   1.000
    O39     O    0.07260   0.92740   0.18350   1.000
    O40     O    0.07260   0.14520   0.18350   1.000
    O41     O    0.85480   0.92740   0.18350   1.000
    O42     O    0.92740   0.07260   0.18350   1.000
    O43     O    0.92740   0.85480   0.18350   1.000
    O44     O    0.14520   0.07260   0.18350   1.000
    O45     O    0.92740   0.07260   0.81650   1.000
    O46     O    0.14520   0.07260   0.81650   1.000
    O47     O    0.92740   0.85480   0.81650   1.000
    O48     O    0.07260   0.92740   0.81650   1.000
    O49     O    0.85480   0.92740   0.81650   1.000
    O50     O    0.07260   0.14520   0.81650   1.000
    C199    C    0.00000   0.88123   0.20290   1.000
    C200    C    0.00000   0.83743   0.28750   1.000
    C201    C    0.11877   0.11877   0.20290   1.000
    C202    C    0.16257   0.16257   0.28750   1.000
    C203    C    0.88123   0.00000   0.20290   1.000
    C204    C    0.83743   0.00000   0.28750   1.000
    C205    C    0.00000   0.11877   0.20290   1.000
    C206    C    0.00000   0.16257   0.28750   1.000
    C207    C    0.88123   0.88123   0.20290   1.000
    C208    C    0.83743   0.83743   0.28750   1.000
    C209    C    0.11877   0.00000   0.20290   1.000
    C210    C    0.16257   0.00000   0.28750   1.000
    C211    C    0.88123   0.00000   0.79710   1.000
    C212    C    0.83743   0.00000   0.71250   1.000
    C213    C    0.11877   0.11877   0.79710   1.000
    C214    C    0.16257   0.16257   0.71250   1.000
    C215    C    0.00000   0.88123   0.79710   1.000
    C216    C    0.00000   0.83743   0.71250   1.000
    C217    C    0.11877   0.00000   0.79710   1.000
    C218    C    0.16257   0.00000   0.71250   1.000
    C219    C    0.88123   0.88123   0.79710   1.000
    C220    C    0.83743   0.83743   0.71250   1.000
    C221    C    0.00000   0.11877   0.79710   1.000
    C222    C    0.00000   0.16257   0.71250   1.000
    S1      S    0.02640   0.71520   0.50000   1.000
    O51     O    0.10400   0.71500   0.50000   1.000
    O52     O    0.96200   0.62900   0.50000   1.000
    S2      S    0.28480   0.31120   0.50000   1.000
    O53     O    0.28500   0.38900   0.50000   1.000
    O54     O    0.37100   0.33300   0.50000   1.000
    S3      S    0.68880   0.97360   0.50000   1.000
    O55     O    0.61100   0.89600   0.50000   1.000
    O56     O    0.66700   0.03800   0.50000   1.000
    S4      S    0.97360   0.28480   0.50000   1.000
    O57     O    0.89600   0.28500   0.50000   1.000
    O58     O    0.03800   0.37100   0.50000   1.000
    S5      S    0.71520   0.68880   0.50000   1.000
    O59     O    0.71500   0.61100   0.50000   1.000
    O60     O    0.62900   0.66700   0.50000   1.000
    S6      S    0.31120   0.02640   0.50000   1.000
    O61     O    0.38900   0.10400   0.50000   1.000
    O62     O    0.33300   0.96200   0.50000   1.000
    S7      S    0.71520   0.02640   0.50000   1.000
    O63     O    0.71500   0.10400   0.50000   1.000
    O64     O    0.62900   0.96200   0.50000   1.000
    S8      S    0.31120   0.28480   0.50000   1.000
    O65     O    0.38900   0.28500   0.50000   1.000
    O66     O    0.33300   0.37100   0.50000   1.000
    S9      S    0.97360   0.68880   0.50000   1.000
    O67     O    0.89600   0.61100   0.50000   1.000
    O68     O    0.03800   0.66700   0.50000   1.000
    S10     S    0.28480   0.97360   0.50000   1.000
    O69     O    0.28500   0.89600   0.50000   1.000
    O70     O    0.37100   0.03800   0.50000   1.000
    S11     S    0.68880   0.71520   0.50000   1.000
    O71     O    0.61100   0.71500   0.50000   1.000
    O72     O    0.66700   0.62900   0.50000   1.000
    S12     S    0.02640   0.31120   0.50000   1.000
    O73     O    0.10400   0.38900   0.50000   1.000
    O74     O    0.96200   0.33300   0.50000   1.000
