# CIF file generated by openbabel 2.4.1, see http://openbabel.sf.net
data_I
_chemical_name_common 'image0'
_cell_length_a 32.1597
_cell_length_b 32.1597
_cell_length_c 32.1597
_cell_angle_alpha 90
_cell_angle_beta 90
_cell_angle_gamma 90
_space_group_name_H-M_alt 'P 1'
_space_group_name_Hall 'P 1'
loop_
    _symmetry_equiv_pos_as_xyz
    x,y,z
loop_
    _atom_site_label
    _atom_site_type_symbol
    _atom_site_fract_x
    _atom_site_fract_y
    _atom_site_fract_z
    _atom_site_occupancy
    O1      O    0.83610   0.05090   0.90030   1.000
    C1      C    0.83040   0.04120   0.01010   1.000
    H1      H    0.82960   0.06960   0.01820   1.000
    C2      C    0.68480   0.78770   0.63960   1.000
    H2      H    0.68390   0.78580   0.61020   1.000
    C3      C    0.70500   0.82150   0.65750   1.000
    H3      H    0.72810   0.83630   0.63970   1.000
    C4      C    0.70200   0.82620   0.70050   1.000
    C5      C    0.68600   0.79700   0.72560   1.000
    H4      H    0.69760   0.79680   0.75450   1.000
    C6      C    0.66580   0.76320   0.70770   1.000
    H5      H    0.65310   0.74630   0.72590   1.000
    C7      C    0.74110   0.90050   0.78050   1.000
    H6      H    0.74340   0.90230   0.80990   1.000
    C8      C    0.72300   0.86580   0.76230   1.000
    H7      H    0.71280   0.84380   0.77930   1.000
    C9      C    0.73450   0.89520   0.69440   1.000
    H8      H    0.73230   0.89340   0.66510   1.000
    C10     C    0.75270   0.93000   0.71260   1.000
    H9      H    0.76290   0.95190   0.69570   1.000
    C11     C    0.81310   0.98550   0.75990   1.000
    H10     H    0.82430   0.97450   0.73490   1.000
    C12     C    0.83280   0.01770   0.78020   1.000
    H11     H    0.85770   0.02920   0.76910   1.000
    O2      O    0.78300   0.10320   0.85350   1.000
    O3      O    0.61380   0.66640   0.70660   1.000
    O4      O    0.33610   0.55090   0.40030   1.000
    C13     C    0.33040   0.54120   0.51010   1.000
    H12     H    0.32960   0.56960   0.51820   1.000
    C14     C    0.18480   0.28770   0.13960   1.000
    H13     H    0.18390   0.28580   0.11020   1.000
    C15     C    0.20500   0.32150   0.15750   1.000
    H14     H    0.22810   0.33630   0.13970   1.000
    C16     C    0.20200   0.32620   0.20050   1.000
    C17     C    0.18600   0.29700   0.22560   1.000
    H15     H    0.19760   0.29680   0.25450   1.000
    C18     C    0.16580   0.26320   0.20770   1.000
    H16     H    0.15310   0.24630   0.22590   1.000
    C19     C    0.24110   0.40050   0.28050   1.000
    H17     H    0.24340   0.40230   0.30990   1.000
    C20     C    0.22300   0.36580   0.26230   1.000
    H18     H    0.21280   0.34380   0.27930   1.000
    C21     C    0.23450   0.39520   0.19440   1.000
    H19     H    0.23230   0.39340   0.16510   1.000
    C22     C    0.25270   0.43000   0.21260   1.000
    H20     H    0.26290   0.45190   0.19570   1.000
    C23     C    0.31310   0.48550   0.25990   1.000
    H21     H    0.32430   0.47450   0.23490   1.000
    C24     C    0.33280   0.51770   0.28020   1.000
    H22     H    0.35770   0.52920   0.26910   1.000
    O5      O    0.28300   0.60320   0.35350   1.000
    O6      O    0.11380   0.16640   0.20660   1.000
    O7      O    0.16390   0.94910   0.90030   1.000
    C25     C    0.16960   0.95880   0.01010   1.000
    H23     H    0.17040   0.93040   0.01820   1.000
    C26     C    0.31520   0.21230   0.63960   1.000
    H24     H    0.31610   0.21420   0.61020   1.000
    C27     C    0.29500   0.17850   0.65750   1.000
    H25     H    0.27190   0.16370   0.63970   1.000
    C28     C    0.29800   0.17380   0.70050   1.000
    C29     C    0.31400   0.20300   0.72560   1.000
    H26     H    0.30240   0.20320   0.75450   1.000
    C30     C    0.33420   0.23680   0.70770   1.000
    H27     H    0.34690   0.25370   0.72590   1.000
    C31     C    0.25890   0.09950   0.78050   1.000
    H28     H    0.25660   0.09770   0.80990   1.000
    C32     C    0.27700   0.13420   0.76230   1.000
    H29     H    0.28720   0.15620   0.77930   1.000
    C33     C    0.26550   0.10480   0.69440   1.000
    H30     H    0.26770   0.10660   0.66510   1.000
    C34     C    0.24730   0.07000   0.71260   1.000
    H31     H    0.23710   0.04810   0.69570   1.000
    C35     C    0.18690   0.01450   0.75990   1.000
    H32     H    0.17570   0.02550   0.73490   1.000
    C36     C    0.16720   0.98230   0.78020   1.000
    H33     H    0.14230   0.97080   0.76910   1.000
    O8      O    0.21700   0.89680   0.85350   1.000
    O9      O    0.38620   0.33360   0.70660   1.000
    O10     O    0.66390   0.44910   0.40030   1.000
    C37     C    0.66960   0.45880   0.51010   1.000
    H34     H    0.67040   0.43040   0.51820   1.000
    C38     C    0.81520   0.71230   0.13960   1.000
    H35     H    0.81610   0.71420   0.11020   1.000
    C39     C    0.79500   0.67850   0.15750   1.000
    H36     H    0.77190   0.66370   0.13970   1.000
    C40     C    0.79800   0.67380   0.20050   1.000
    C41     C    0.81400   0.70300   0.22560   1.000
    H37     H    0.80240   0.70320   0.25450   1.000
    C42     C    0.83420   0.73680   0.20770   1.000
    H38     H    0.84690   0.75370   0.22590   1.000
    C43     C    0.75890   0.59950   0.28050   1.000
    H39     H    0.75660   0.59770   0.30990   1.000
    C44     C    0.77700   0.63420   0.26230   1.000
    H40     H    0.78720   0.65620   0.27930   1.000
    C45     C    0.76550   0.60480   0.19440   1.000
    H41     H    0.76770   0.60660   0.16510   1.000
    C46     C    0.74730   0.57000   0.21260   1.000
    H42     H    0.73710   0.54810   0.19570   1.000
    C47     C    0.68690   0.51450   0.25990   1.000
    H43     H    0.67570   0.52550   0.23490   1.000
    C48     C    0.66720   0.48230   0.28020   1.000
    H44     H    0.64230   0.47080   0.26910   1.000
    O11     O    0.71700   0.39680   0.35350   1.000
    O12     O    0.88620   0.83360   0.20660   1.000
    O13     O    0.16390   0.05090   0.09970   1.000
    C49     C    0.16960   0.04120   0.98990   1.000
    H45     H    0.17040   0.06960   0.98180   1.000
    C50     C    0.31520   0.78770   0.36040   1.000
    H46     H    0.31610   0.78580   0.38980   1.000
    C51     C    0.29500   0.82150   0.34250   1.000
    H47     H    0.27190   0.83630   0.36030   1.000
    C52     C    0.29800   0.82620   0.29950   1.000
    C53     C    0.31400   0.79700   0.27440   1.000
    H48     H    0.30240   0.79680   0.24550   1.000
    C54     C    0.33420   0.76320   0.29230   1.000
    H49     H    0.34690   0.74630   0.27410   1.000
    C55     C    0.25890   0.90050   0.21950   1.000
    H50     H    0.25660   0.90230   0.19010   1.000
    C56     C    0.27700   0.86580   0.23770   1.000
    H51     H    0.28720   0.84380   0.22070   1.000
    C57     C    0.26550   0.89520   0.30560   1.000
    H52     H    0.26770   0.89340   0.33490   1.000
    C58     C    0.24730   0.93000   0.28740   1.000
    H53     H    0.23710   0.95190   0.30430   1.000
    C59     C    0.18690   0.98550   0.24010   1.000
    H54     H    0.17570   0.97450   0.26510   1.000
    C60     C    0.16720   0.01770   0.21980   1.000
    H55     H    0.14230   0.02920   0.23090   1.000
    O14     O    0.21700   0.10320   0.14650   1.000
    O15     O    0.38620   0.66640   0.29340   1.000
    O16     O    0.66390   0.55090   0.59970   1.000
    C61     C    0.66960   0.54120   0.48990   1.000
    H56     H    0.67040   0.56960   0.48180   1.000
    C62     C    0.81520   0.28770   0.86040   1.000
    H57     H    0.81610   0.28580   0.88980   1.000
    C63     C    0.79500   0.32150   0.84250   1.000
    H58     H    0.77190   0.33630   0.86030   1.000
    C64     C    0.79800   0.32620   0.79950   1.000
    C65     C    0.81400   0.29700   0.77440   1.000
    H59     H    0.80240   0.29680   0.74550   1.000
    C66     C    0.83420   0.26320   0.79230   1.000
    H60     H    0.84690   0.24630   0.77410   1.000
    C67     C    0.75890   0.40050   0.71950   1.000
    H61     H    0.75660   0.40230   0.69010   1.000
    C68     C    0.77700   0.36580   0.73770   1.000
    H62     H    0.78720   0.34380   0.72070   1.000
    C69     C    0.76550   0.39520   0.80560   1.000
    H63     H    0.76770   0.39340   0.83490   1.000
    C70     C    0.74730   0.43000   0.78740   1.000
    H64     H    0.73710   0.45190   0.80430   1.000
    C71     C    0.68690   0.48550   0.74010   1.000
    H65     H    0.67570   0.47450   0.76510   1.000
    C72     C    0.66720   0.51770   0.71980   1.000
    H66     H    0.64230   0.52920   0.73090   1.000
    O17     O    0.71700   0.60320   0.64650   1.000
    O18     O    0.88620   0.16640   0.79340   1.000
    O19     O    0.83610   0.94910   0.09970   1.000
    C73     C    0.83040   0.95880   0.98990   1.000
    H67     H    0.82960   0.93040   0.98180   1.000
    C74     C    0.68480   0.21230   0.36040   1.000
    H68     H    0.68390   0.21420   0.38980   1.000
    C75     C    0.70500   0.17850   0.34250   1.000
    H69     H    0.72810   0.16370   0.36030   1.000
    C76     C    0.70200   0.17380   0.29950   1.000
    C77     C    0.68600   0.20300   0.27440   1.000
    H70     H    0.69760   0.20320   0.24550   1.000
    C78     C    0.66580   0.23680   0.29230   1.000
    H71     H    0.65310   0.25370   0.27410   1.000
    C79     C    0.74110   0.09950   0.21950   1.000
    H72     H    0.74340   0.09770   0.19010   1.000
    C80     C    0.72300   0.13420   0.23770   1.000
    H73     H    0.71280   0.15620   0.22070   1.000
    C81     C    0.73450   0.10480   0.30560   1.000
    H74     H    0.73230   0.10660   0.33490   1.000
    C82     C    0.75270   0.07000   0.28740   1.000
    H75     H    0.76290   0.04810   0.30430   1.000
    C83     C    0.81310   0.01450   0.24010   1.000
    H76     H    0.82430   0.02550   0.26510   1.000
    C84     C    0.83280   0.98230   0.21980   1.000
    H77     H    0.85770   0.97080   0.23090   1.000
    O20     O    0.78300   0.89680   0.14650   1.000
    O21     O    0.61380   0.33360   0.29340   1.000
    O22     O    0.33610   0.44910   0.59970   1.000
    C85     C    0.33040   0.45880   0.48990   1.000
    H78     H    0.32960   0.43040   0.48180   1.000
    C86     C    0.18480   0.71230   0.86040   1.000
    H79     H    0.18390   0.71420   0.88980   1.000
    C87     C    0.20500   0.67850   0.84250   1.000
    H80     H    0.22810   0.66370   0.86030   1.000
    C88     C    0.20200   0.67380   0.79950   1.000
    C89     C    0.18600   0.70300   0.77440   1.000
    H81     H    0.19760   0.70320   0.74550   1.000
    C90     C    0.16580   0.73680   0.79230   1.000
    H82     H    0.15310   0.75370   0.77410   1.000
    C91     C    0.24110   0.59950   0.71950   1.000
    H83     H    0.24340   0.59770   0.69010   1.000
    C92     C    0.22300   0.63420   0.73770   1.000
    H84     H    0.21280   0.65620   0.72070   1.000
    C93     C    0.23450   0.60480   0.80560   1.000
    H85     H    0.23230   0.60660   0.83490   1.000
    C94     C    0.25270   0.57000   0.78740   1.000
    H86     H    0.26290   0.54810   0.80430   1.000
    C95     C    0.31310   0.51450   0.74010   1.000
    H87     H    0.32430   0.52550   0.76510   1.000
    C96     C    0.33280   0.48230   0.71980   1.000
    H88     H    0.35770   0.47080   0.73090   1.000
    O23     O    0.28300   0.39680   0.64650   1.000
    O24     O    0.11380   0.83360   0.79340   1.000
    O25     O    0.90030   0.83610   0.05090   1.000
    C97     C    0.01010   0.83040   0.04120   1.000
    H89     H    0.01820   0.82960   0.06960   1.000
    C98     C    0.63960   0.68480   0.78770   1.000
    H90     H    0.61020   0.68390   0.78580   1.000
    C99     C    0.65750   0.70500   0.82150   1.000
    H91     H    0.63970   0.72810   0.83630   1.000
    C100    C    0.70050   0.70200   0.82620   1.000
    C101    C    0.72560   0.68600   0.79700   1.000
    H92     H    0.75450   0.69760   0.79680   1.000
    C102    C    0.70770   0.66580   0.76320   1.000
    H93     H    0.72590   0.65310   0.74630   1.000
    C103    C    0.78050   0.74110   0.90050   1.000
    H94     H    0.80990   0.74340   0.90230   1.000
    C104    C    0.76230   0.72300   0.86580   1.000
    H95     H    0.77930   0.71280   0.84380   1.000
    C105    C    0.69440   0.73450   0.89520   1.000
    H96     H    0.66510   0.73230   0.89340   1.000
    C106    C    0.71260   0.75270   0.93000   1.000
    H97     H    0.69570   0.76290   0.95190   1.000
    C107    C    0.75990   0.81310   0.98550   1.000
    H98     H    0.73490   0.82430   0.97450   1.000
    C108    C    0.78020   0.83280   0.01770   1.000
    H99     H    0.76910   0.85770   0.02920   1.000
    O26     O    0.85350   0.78300   0.10320   1.000
    O27     O    0.70660   0.61380   0.66640   1.000
    O28     O    0.40030   0.33610   0.55090   1.000
    C109    C    0.51010   0.33040   0.54120   1.000
    H100    H    0.51820   0.32960   0.56960   1.000
    C110    C    0.13960   0.18480   0.28770   1.000
    H101    H    0.11020   0.18390   0.28580   1.000
    C111    C    0.15750   0.20500   0.32150   1.000
    H102    H    0.13970   0.22810   0.33630   1.000
    C112    C    0.20050   0.20200   0.32620   1.000
    C113    C    0.22560   0.18600   0.29700   1.000
    H103    H    0.25450   0.19760   0.29680   1.000
    C114    C    0.20770   0.16580   0.26320   1.000
    H104    H    0.22590   0.15310   0.24630   1.000
    C115    C    0.28050   0.24110   0.40050   1.000
    H105    H    0.30990   0.24340   0.40230   1.000
    C116    C    0.26230   0.22300   0.36580   1.000
    H106    H    0.27930   0.21280   0.34380   1.000
    C117    C    0.19440   0.23450   0.39520   1.000
    H107    H    0.16510   0.23230   0.39340   1.000
    C118    C    0.21260   0.25270   0.43000   1.000
    H108    H    0.19570   0.26290   0.45190   1.000
    C119    C    0.25990   0.31310   0.48550   1.000
    H109    H    0.23490   0.32430   0.47450   1.000
    C120    C    0.28020   0.33280   0.51770   1.000
    H110    H    0.26910   0.35770   0.52920   1.000
    O29     O    0.35350   0.28300   0.60320   1.000
    O30     O    0.20660   0.11380   0.16640   1.000
    O31     O    0.90030   0.16390   0.94910   1.000
    C121    C    0.01010   0.16960   0.95880   1.000
    H111    H    0.01820   0.17040   0.93040   1.000
    C122    C    0.63960   0.31520   0.21230   1.000
    H112    H    0.61020   0.31610   0.21420   1.000
    C123    C    0.65750   0.29500   0.17850   1.000
    H113    H    0.63970   0.27190   0.16370   1.000
    C124    C    0.70050   0.29800   0.17380   1.000
    C125    C    0.72560   0.31400   0.20300   1.000
    H114    H    0.75450   0.30240   0.20320   1.000
    C126    C    0.70770   0.33420   0.23680   1.000
    H115    H    0.72590   0.34690   0.25370   1.000
    C127    C    0.78050   0.25890   0.09950   1.000
    H116    H    0.80990   0.25660   0.09770   1.000
    C128    C    0.76230   0.27700   0.13420   1.000
    H117    H    0.77930   0.28720   0.15620   1.000
    C129    C    0.69440   0.26550   0.10480   1.000
    H118    H    0.66510   0.26770   0.10660   1.000
    C130    C    0.71260   0.24730   0.07000   1.000
    H119    H    0.69570   0.23710   0.04810   1.000
    C131    C    0.75990   0.18690   0.01450   1.000
    H120    H    0.73490   0.17570   0.02550   1.000
    C132    C    0.78020   0.16720   0.98230   1.000
    H121    H    0.76910   0.14230   0.97080   1.000
    O32     O    0.85350   0.21700   0.89680   1.000
    O33     O    0.70660   0.38620   0.33360   1.000
    O34     O    0.40030   0.66390   0.44910   1.000
    C133    C    0.51010   0.66960   0.45880   1.000
    H122    H    0.51820   0.67040   0.43040   1.000
    C134    C    0.13960   0.81520   0.71230   1.000
    H123    H    0.11020   0.81610   0.71420   1.000
    C135    C    0.15750   0.79500   0.67850   1.000
    H124    H    0.13970   0.77190   0.66370   1.000
    C136    C    0.20050   0.79800   0.67380   1.000
    C137    C    0.22560   0.81400   0.70300   1.000
    H125    H    0.25450   0.80240   0.70320   1.000
    C138    C    0.20770   0.83420   0.73680   1.000
    H126    H    0.22590   0.84690   0.75370   1.000
    C139    C    0.28050   0.75890   0.59950   1.000
    H127    H    0.30990   0.75660   0.59770   1.000
    C140    C    0.26230   0.77700   0.63420   1.000
    H128    H    0.27930   0.78720   0.65620   1.000
    C141    C    0.19440   0.76550   0.60480   1.000
    H129    H    0.16510   0.76770   0.60660   1.000
    C142    C    0.21260   0.74730   0.57000   1.000
    H130    H    0.19570   0.73710   0.54810   1.000
    C143    C    0.25990   0.68690   0.51450   1.000
    H131    H    0.23490   0.67570   0.52550   1.000
    C144    C    0.28020   0.66720   0.48230   1.000
    H132    H    0.26910   0.64230   0.47080   1.000
    O35     O    0.35350   0.71700   0.39680   1.000
    O36     O    0.20660   0.88620   0.83360   1.000
    O37     O    0.09970   0.16390   0.05090   1.000
    C145    C    0.98990   0.16960   0.04120   1.000
    H133    H    0.98180   0.17040   0.06960   1.000
    C146    C    0.36040   0.31520   0.78770   1.000
    H134    H    0.38980   0.31610   0.78580   1.000
    C147    C    0.34250   0.29500   0.82150   1.000
    H135    H    0.36030   0.27190   0.83630   1.000
    C148    C    0.29950   0.29800   0.82620   1.000
    C149    C    0.27440   0.31400   0.79700   1.000
    H136    H    0.24550   0.30240   0.79680   1.000
    C150    C    0.29230   0.33420   0.76320   1.000
    H137    H    0.27410   0.34690   0.74630   1.000
    C151    C    0.21950   0.25890   0.90050   1.000
    H138    H    0.19010   0.25660   0.90230   1.000
    C152    C    0.23770   0.27700   0.86580   1.000
    H139    H    0.22070   0.28720   0.84380   1.000
    C153    C    0.30560   0.26550   0.89520   1.000
    H140    H    0.33490   0.26770   0.89340   1.000
    C154    C    0.28740   0.24730   0.93000   1.000
    H141    H    0.30430   0.23710   0.95190   1.000
    C155    C    0.24010   0.18690   0.98550   1.000
    H142    H    0.26510   0.17570   0.97450   1.000
    C156    C    0.21980   0.16720   0.01770   1.000
    H143    H    0.23090   0.14230   0.02920   1.000
    O38     O    0.14650   0.21700   0.10320   1.000
    O39     O    0.29340   0.38620   0.66640   1.000
    O40     O    0.59970   0.66390   0.55090   1.000
    C157    C    0.48990   0.66960   0.54120   1.000
    H144    H    0.48180   0.67040   0.56960   1.000
    C158    C    0.86040   0.81520   0.28770   1.000
    H145    H    0.88980   0.81610   0.28580   1.000
    C159    C    0.84250   0.79500   0.32150   1.000
    H146    H    0.86030   0.77190   0.33630   1.000
    C160    C    0.79950   0.79800   0.32620   1.000
    C161    C    0.77440   0.81400   0.29700   1.000
    H147    H    0.74550   0.80240   0.29680   1.000
    C162    C    0.79230   0.83420   0.26320   1.000
    H148    H    0.77410   0.84690   0.24630   1.000
    C163    C    0.71950   0.75890   0.40050   1.000
    H149    H    0.69010   0.75660   0.40230   1.000
    C164    C    0.73770   0.77700   0.36580   1.000
    H150    H    0.72070   0.78720   0.34380   1.000
    C165    C    0.80560   0.76550   0.39520   1.000
    H151    H    0.83490   0.76770   0.39340   1.000
    C166    C    0.78740   0.74730   0.43000   1.000
    H152    H    0.80430   0.73710   0.45190   1.000
    C167    C    0.74010   0.68690   0.48550   1.000
    H153    H    0.76510   0.67570   0.47450   1.000
    C168    C    0.71980   0.66720   0.51770   1.000
    H154    H    0.73090   0.64230   0.52920   1.000
    O41     O    0.64650   0.71700   0.60320   1.000
    O42     O    0.79340   0.88620   0.16640   1.000
    O43     O    0.09970   0.83610   0.94910   1.000
    C169    C    0.98990   0.83040   0.95880   1.000
    H155    H    0.98180   0.82960   0.93040   1.000
    C170    C    0.36040   0.68480   0.21230   1.000
    H156    H    0.38980   0.68390   0.21420   1.000
    C171    C    0.34250   0.70500   0.17850   1.000
    H157    H    0.36030   0.72810   0.16370   1.000
    C172    C    0.29950   0.70200   0.17380   1.000
    C173    C    0.27440   0.68600   0.20300   1.000
    H158    H    0.24550   0.69760   0.20320   1.000
    C174    C    0.29230   0.66580   0.23680   1.000
    H159    H    0.27410   0.65310   0.25370   1.000
    C175    C    0.21950   0.74110   0.09950   1.000
    H160    H    0.19010   0.74340   0.09770   1.000
    C176    C    0.23770   0.72300   0.13420   1.000
    H161    H    0.22070   0.71280   0.15620   1.000
    C177    C    0.30560   0.73450   0.10480   1.000
    H162    H    0.33490   0.73230   0.10660   1.000
    C178    C    0.28740   0.75270   0.07000   1.000
    H163    H    0.30430   0.76290   0.04810   1.000
    C179    C    0.24010   0.81310   0.01450   1.000
    H164    H    0.26510   0.82430   0.02550   1.000
    C180    C    0.21980   0.83280   0.98230   1.000
    H165    H    0.23090   0.85770   0.97080   1.000
    O44     O    0.14650   0.78300   0.89680   1.000
    O45     O    0.29340   0.61380   0.33360   1.000
    O46     O    0.59970   0.33610   0.44910   1.000
    C181    C    0.48990   0.33040   0.45880   1.000
    H166    H    0.48180   0.32960   0.43040   1.000
    C182    C    0.86040   0.18480   0.71230   1.000
    H167    H    0.88980   0.18390   0.71420   1.000
    C183    C    0.84250   0.20500   0.67850   1.000
    H168    H    0.86030   0.22810   0.66370   1.000
    C184    C    0.79950   0.20200   0.67380   1.000
    C185    C    0.77440   0.18600   0.70300   1.000
    H169    H    0.74550   0.19760   0.70320   1.000
    C186    C    0.79230   0.16580   0.73680   1.000
    H170    H    0.77410   0.15310   0.75370   1.000
    C187    C    0.71950   0.24110   0.59950   1.000
    H171    H    0.69010   0.24340   0.59770   1.000
    C188    C    0.73770   0.22300   0.63420   1.000
    H172    H    0.72070   0.21280   0.65620   1.000
    C189    C    0.80560   0.23450   0.60480   1.000
    H173    H    0.83490   0.23230   0.60660   1.000
    C190    C    0.78740   0.25270   0.57000   1.000
    H174    H    0.80430   0.26290   0.54810   1.000
    C191    C    0.74010   0.31310   0.51450   1.000
    H175    H    0.76510   0.32430   0.52550   1.000
    C192    C    0.71980   0.33280   0.48230   1.000
    H176    H    0.73090   0.35770   0.47080   1.000
    O47     O    0.64650   0.28300   0.39680   1.000
    O48     O    0.79340   0.11380   0.83360   1.000
    O49     O    0.05090   0.90030   0.83610   1.000
    C193    C    0.04120   0.01010   0.83040   1.000
    H177    H    0.06960   0.01820   0.82960   1.000
    C194    C    0.78770   0.63960   0.68480   1.000
    H178    H    0.78580   0.61020   0.68390   1.000
    C195    C    0.82150   0.65750   0.70500   1.000
    H179    H    0.83630   0.63970   0.72810   1.000
    C196    C    0.82620   0.70050   0.70200   1.000
    C197    C    0.79700   0.72560   0.68600   1.000
    H180    H    0.79680   0.75450   0.69760   1.000
    C198    C    0.76320   0.70770   0.66580   1.000
    H181    H    0.74630   0.72590   0.65310   1.000
    C199    C    0.90050   0.78050   0.74110   1.000
    H182    H    0.90230   0.80990   0.74340   1.000
    C200    C    0.86580   0.76230   0.72300   1.000
    H183    H    0.84380   0.77930   0.71280   1.000
    C201    C    0.89520   0.69440   0.73450   1.000
    H184    H    0.89340   0.66510   0.73230   1.000
    C202    C    0.93000   0.71260   0.75270   1.000
    H185    H    0.95190   0.69570   0.76290   1.000
    C203    C    0.98550   0.75990   0.81310   1.000
    H186    H    0.97450   0.73490   0.82430   1.000
    C204    C    0.01770   0.78020   0.83280   1.000
    H187    H    0.02920   0.76910   0.85770   1.000
    O50     O    0.10320   0.85350   0.78300   1.000
    O51     O    0.66640   0.70660   0.61380   1.000
    O52     O    0.55090   0.40030   0.33610   1.000
    C205    C    0.54120   0.51010   0.33040   1.000
    H188    H    0.56960   0.51820   0.32960   1.000
    C206    C    0.28770   0.13960   0.18480   1.000
    H189    H    0.28580   0.11020   0.18390   1.000
    C207    C    0.32150   0.15750   0.20500   1.000
    H190    H    0.33630   0.13970   0.22810   1.000
    C208    C    0.32620   0.20050   0.20200   1.000
    C209    C    0.29700   0.22560   0.18600   1.000
    H191    H    0.29680   0.25450   0.19760   1.000
    C210    C    0.26320   0.20770   0.16580   1.000
    H192    H    0.24630   0.22590   0.15310   1.000
    C211    C    0.40050   0.28050   0.24110   1.000
    H193    H    0.40230   0.30990   0.24340   1.000
    C212    C    0.36580   0.26230   0.22300   1.000
    H194    H    0.34380   0.27930   0.21280   1.000
    C213    C    0.39520   0.19440   0.23450   1.000
    H195    H    0.39340   0.16510   0.23230   1.000
    C214    C    0.43000   0.21260   0.25270   1.000
    H196    H    0.45190   0.19570   0.26290   1.000
    C215    C    0.48550   0.25990   0.31310   1.000
    H197    H    0.47450   0.23490   0.32430   1.000
    C216    C    0.51770   0.28020   0.33280   1.000
    H198    H    0.52920   0.26910   0.35770   1.000
    O53     O    0.60320   0.35350   0.28300   1.000
    O54     O    0.16640   0.20660   0.11380   1.000
    O55     O    0.94910   0.90030   0.16390   1.000
    C217    C    0.95880   0.01010   0.16960   1.000
    H199    H    0.93040   0.01820   0.17040   1.000
    C218    C    0.21230   0.63960   0.31520   1.000
    H200    H    0.21420   0.61020   0.31610   1.000
    C219    C    0.17850   0.65750   0.29500   1.000
    H201    H    0.16370   0.63970   0.27190   1.000
    C220    C    0.17380   0.70050   0.29800   1.000
    C221    C    0.20300   0.72560   0.31400   1.000
    H202    H    0.20320   0.75450   0.30240   1.000
    C222    C    0.23680   0.70770   0.33420   1.000
    H203    H    0.25370   0.72590   0.34690   1.000
    C223    C    0.09950   0.78050   0.25890   1.000
    H204    H    0.09770   0.80990   0.25660   1.000
    C224    C    0.13420   0.76230   0.27700   1.000
    H205    H    0.15620   0.77930   0.28720   1.000
    C225    C    0.10480   0.69440   0.26550   1.000
    H206    H    0.10660   0.66510   0.26770   1.000
    C226    C    0.07000   0.71260   0.24730   1.000
    H207    H    0.04810   0.69570   0.23710   1.000
    C227    C    0.01450   0.75990   0.18690   1.000
    H208    H    0.02550   0.73490   0.17570   1.000
    C228    C    0.98230   0.78020   0.16720   1.000
    H209    H    0.97080   0.76910   0.14230   1.000
    O56     O    0.89680   0.85350   0.21700   1.000
    O57     O    0.33360   0.70660   0.38620   1.000
    O58     O    0.44910   0.40030   0.66390   1.000
    C229    C    0.45880   0.51010   0.66960   1.000
    H210    H    0.43040   0.51820   0.67040   1.000
    C230    C    0.71230   0.13960   0.81520   1.000
    H211    H    0.71420   0.11020   0.81610   1.000
    C231    C    0.67850   0.15750   0.79500   1.000
    H212    H    0.66370   0.13970   0.77190   1.000
    C232    C    0.67380   0.20050   0.79800   1.000
    C233    C    0.70300   0.22560   0.81400   1.000
    H213    H    0.70320   0.25450   0.80240   1.000
    C234    C    0.73680   0.20770   0.83420   1.000
    H214    H    0.75370   0.22590   0.84690   1.000
    C235    C    0.59950   0.28050   0.75890   1.000
    H215    H    0.59770   0.30990   0.75660   1.000
    C236    C    0.63420   0.26230   0.77700   1.000
    H216    H    0.65620   0.27930   0.78720   1.000
    C237    C    0.60480   0.19440   0.76550   1.000
    H217    H    0.60660   0.16510   0.76770   1.000
    C238    C    0.57000   0.21260   0.74730   1.000
    H218    H    0.54810   0.19570   0.73710   1.000
    C239    C    0.51450   0.25990   0.68690   1.000
    H219    H    0.52550   0.23490   0.67570   1.000
    C240    C    0.48230   0.28020   0.66720   1.000
    H220    H    0.47080   0.26910   0.64230   1.000
    O59     O    0.39680   0.35350   0.71700   1.000
    O60     O    0.83360   0.20660   0.88620   1.000
    O61     O    0.05090   0.09970   0.16390   1.000
    C241    C    0.04120   0.98990   0.16960   1.000
    H221    H    0.06960   0.98180   0.17040   1.000
    C242    C    0.78770   0.36040   0.31520   1.000
    H222    H    0.78580   0.38980   0.31610   1.000
    C243    C    0.82150   0.34250   0.29500   1.000
    H223    H    0.83630   0.36030   0.27190   1.000
    C244    C    0.82620   0.29950   0.29800   1.000
    C245    C    0.79700   0.27440   0.31400   1.000
    H224    H    0.79680   0.24550   0.30240   1.000
    C246    C    0.76320   0.29230   0.33420   1.000
    H225    H    0.74630   0.27410   0.34690   1.000
    C247    C    0.90050   0.21950   0.25890   1.000
    H226    H    0.90230   0.19010   0.25660   1.000
    C248    C    0.86580   0.23770   0.27700   1.000
    H227    H    0.84380   0.22070   0.28720   1.000
    C249    C    0.89520   0.30560   0.26550   1.000
    H228    H    0.89340   0.33490   0.26770   1.000
    C250    C    0.93000   0.28740   0.24730   1.000
    H229    H    0.95190   0.30430   0.23710   1.000
    C251    C    0.98550   0.24010   0.18690   1.000
    H230    H    0.97450   0.26510   0.17570   1.000
    C252    C    0.01770   0.21980   0.16720   1.000
    H231    H    0.02920   0.23090   0.14230   1.000
    O62     O    0.10320   0.14650   0.21700   1.000
    O63     O    0.66640   0.29340   0.38620   1.000
    O64     O    0.55090   0.59970   0.66390   1.000
    C253    C    0.54120   0.48990   0.66960   1.000
    H232    H    0.56960   0.48180   0.67040   1.000
    C254    C    0.28770   0.86040   0.81520   1.000
    H233    H    0.28580   0.88980   0.81610   1.000
    C255    C    0.32150   0.84250   0.79500   1.000
    H234    H    0.33630   0.86030   0.77190   1.000
    C256    C    0.32620   0.79950   0.79800   1.000
    C257    C    0.29700   0.77440   0.81400   1.000
    H235    H    0.29680   0.74550   0.80240   1.000
    C258    C    0.26320   0.79230   0.83420   1.000
    H236    H    0.24630   0.77410   0.84690   1.000
    C259    C    0.40050   0.71950   0.75890   1.000
    H237    H    0.40230   0.69010   0.75660   1.000
    C260    C    0.36580   0.73770   0.77700   1.000
    H238    H    0.34380   0.72070   0.78720   1.000
    C261    C    0.39520   0.80560   0.76550   1.000
    H239    H    0.39340   0.83490   0.76770   1.000
    C262    C    0.43000   0.78740   0.74730   1.000
    H240    H    0.45190   0.80430   0.73710   1.000
    C263    C    0.48550   0.74010   0.68690   1.000
    H241    H    0.47450   0.76510   0.67570   1.000
    C264    C    0.51770   0.71980   0.66720   1.000
    H242    H    0.52920   0.73090   0.64230   1.000
    O65     O    0.60320   0.64650   0.71700   1.000
    O66     O    0.16640   0.79340   0.88620   1.000
    O67     O    0.94910   0.09970   0.83610   1.000
    C265    C    0.95880   0.98990   0.83040   1.000
    H243    H    0.93040   0.98180   0.82960   1.000
    C266    C    0.21230   0.36040   0.68480   1.000
    H244    H    0.21420   0.38980   0.68390   1.000
    C267    C    0.17850   0.34250   0.70500   1.000
    H245    H    0.16370   0.36030   0.72810   1.000
    C268    C    0.17380   0.29950   0.70200   1.000
    C269    C    0.20300   0.27440   0.68600   1.000
    H246    H    0.20320   0.24550   0.69760   1.000
    C270    C    0.23680   0.29230   0.66580   1.000
    H247    H    0.25370   0.27410   0.65310   1.000
    C271    C    0.09950   0.21950   0.74110   1.000
    H248    H    0.09770   0.19010   0.74340   1.000
    C272    C    0.13420   0.23770   0.72300   1.000
    H249    H    0.15620   0.22070   0.71280   1.000
    C273    C    0.10480   0.30560   0.73450   1.000
    H250    H    0.10660   0.33490   0.73230   1.000
    C274    C    0.07000   0.28740   0.75270   1.000
    H251    H    0.04810   0.30430   0.76290   1.000
    C275    C    0.01450   0.24010   0.81310   1.000
    H252    H    0.02550   0.26510   0.82430   1.000
    C276    C    0.98230   0.21980   0.83280   1.000
    H253    H    0.97080   0.23090   0.85770   1.000
    O68     O    0.89680   0.14650   0.78300   1.000
    O69     O    0.33360   0.29340   0.61380   1.000
    O70     O    0.44910   0.59970   0.33610   1.000
    C277    C    0.45880   0.48990   0.33040   1.000
    H254    H    0.43040   0.48180   0.32960   1.000
    C278    C    0.71230   0.86040   0.18480   1.000
    H255    H    0.71420   0.88980   0.18390   1.000
    C279    C    0.67850   0.84250   0.20500   1.000
    H256    H    0.66370   0.86030   0.22810   1.000
    C280    C    0.67380   0.79950   0.20200   1.000
    C281    C    0.70300   0.77440   0.18600   1.000
    H257    H    0.70320   0.74550   0.19760   1.000
    C282    C    0.73680   0.79230   0.16580   1.000
    H258    H    0.75370   0.77410   0.15310   1.000
    C283    C    0.59950   0.71950   0.24110   1.000
    H259    H    0.59770   0.69010   0.24340   1.000
    C284    C    0.63420   0.73770   0.22300   1.000
    H260    H    0.65620   0.72070   0.21280   1.000
    C285    C    0.60480   0.80560   0.23450   1.000
    H261    H    0.60660   0.83490   0.23230   1.000
    C286    C    0.57000   0.78740   0.25270   1.000
    H262    H    0.54810   0.80430   0.26290   1.000
    C287    C    0.51450   0.74010   0.31310   1.000
    H263    H    0.52550   0.76510   0.32430   1.000
    C288    C    0.48230   0.71980   0.33280   1.000
    H264    H    0.47080   0.73090   0.35770   1.000
    O71     O    0.39680   0.64650   0.28300   1.000
    O72     O    0.83360   0.79340   0.11380   1.000
    O73     O    0.05090   0.83610   0.90030   1.000
    C289    C    0.04120   0.83040   0.01010   1.000
    H265    H    0.06960   0.82960   0.01820   1.000
    C290    C    0.78770   0.68480   0.63960   1.000
    H266    H    0.78580   0.68390   0.61020   1.000
    C291    C    0.82150   0.70500   0.65750   1.000
    H267    H    0.83630   0.72810   0.63970   1.000
    C292    C    0.82620   0.70200   0.70050   1.000
    C293    C    0.79700   0.68600   0.72560   1.000
    H268    H    0.79680   0.69760   0.75450   1.000
    C294    C    0.76320   0.66580   0.70770   1.000
    H269    H    0.74630   0.65310   0.72590   1.000
    C295    C    0.90050   0.74110   0.78050   1.000
    H270    H    0.90230   0.74340   0.80990   1.000
    C296    C    0.86580   0.72300   0.76230   1.000
    H271    H    0.84380   0.71280   0.77930   1.000
    C297    C    0.89520   0.73450   0.69440   1.000
    H272    H    0.89340   0.73230   0.66510   1.000
    C298    C    0.93000   0.75270   0.71260   1.000
    H273    H    0.95190   0.76290   0.69570   1.000
    C299    C    0.98550   0.81310   0.75990   1.000
    H274    H    0.97450   0.82430   0.73490   1.000
    C300    C    0.01770   0.83280   0.78020   1.000
    H275    H    0.02920   0.85770   0.76910   1.000
    O74     O    0.10320   0.78300   0.85350   1.000
    O75     O    0.66640   0.61380   0.70660   1.000
    O76     O    0.55090   0.33610   0.40030   1.000
    C301    C    0.54120   0.33040   0.51010   1.000
    H276    H    0.56960   0.32960   0.51820   1.000
    C302    C    0.28770   0.18480   0.13960   1.000
    H277    H    0.28580   0.18390   0.11020   1.000
    C303    C    0.32150   0.20500   0.15750   1.000
    H278    H    0.33630   0.22810   0.13970   1.000
    C304    C    0.32620   0.20200   0.20050   1.000
    C305    C    0.29700   0.18600   0.22560   1.000
    H279    H    0.29680   0.19760   0.25450   1.000
    C306    C    0.26320   0.16580   0.20770   1.000
    H280    H    0.24630   0.15310   0.22590   1.000
    C307    C    0.40050   0.24110   0.28050   1.000
    H281    H    0.40230   0.24340   0.30990   1.000
    C308    C    0.36580   0.22300   0.26230   1.000
    H282    H    0.34380   0.21280   0.27930   1.000
    C309    C    0.39520   0.23450   0.19440   1.000
    H283    H    0.39340   0.23230   0.16510   1.000
    C310    C    0.43000   0.25270   0.21260   1.000
    H284    H    0.45190   0.26290   0.19570   1.000
    C311    C    0.48550   0.31310   0.25990   1.000
    H285    H    0.47450   0.32430   0.23490   1.000
    C312    C    0.51770   0.33280   0.28020   1.000
    H286    H    0.52920   0.35770   0.26910   1.000
    O77     O    0.60320   0.28300   0.35350   1.000
    O78     O    0.16640   0.11380   0.20660   1.000
    O79     O    0.94910   0.16390   0.90030   1.000
    C313    C    0.95880   0.16960   0.01010   1.000
    H287    H    0.93040   0.17040   0.01820   1.000
    C314    C    0.21230   0.31520   0.63960   1.000
    H288    H    0.21420   0.31610   0.61020   1.000
    C315    C    0.17850   0.29500   0.65750   1.000
    H289    H    0.16370   0.27190   0.63970   1.000
    C316    C    0.17380   0.29800   0.70050   1.000
    C317    C    0.20300   0.31400   0.72560   1.000
    H290    H    0.20320   0.30240   0.75450   1.000
    C318    C    0.23680   0.33420   0.70770   1.000
    H291    H    0.25370   0.34690   0.72590   1.000
    C319    C    0.09950   0.25890   0.78050   1.000
    H292    H    0.09770   0.25660   0.80990   1.000
    C320    C    0.13420   0.27700   0.76230   1.000
    H293    H    0.15620   0.28720   0.77930   1.000
    C321    C    0.10480   0.26550   0.69440   1.000
    H294    H    0.10660   0.26770   0.66510   1.000
    C322    C    0.07000   0.24730   0.71260   1.000
    H295    H    0.04810   0.23710   0.69570   1.000
    C323    C    0.01450   0.18690   0.75990   1.000
    H296    H    0.02550   0.17570   0.73490   1.000
    C324    C    0.98230   0.16720   0.78020   1.000
    H297    H    0.97080   0.14230   0.76910   1.000
    O80     O    0.89680   0.21700   0.85350   1.000
    O81     O    0.33360   0.38620   0.70660   1.000
    O82     O    0.44910   0.66390   0.40030   1.000
    C325    C    0.45880   0.66960   0.51010   1.000
    H298    H    0.43040   0.67040   0.51820   1.000
    C326    C    0.71230   0.81520   0.13960   1.000
    H299    H    0.71420   0.81610   0.11020   1.000
    C327    C    0.67850   0.79500   0.15750   1.000
    H300    H    0.66370   0.77190   0.13970   1.000
    C328    C    0.67380   0.79800   0.20050   1.000
    C329    C    0.70300   0.81400   0.22560   1.000
    H301    H    0.70320   0.80240   0.25450   1.000
    C330    C    0.73680   0.83420   0.20770   1.000
    H302    H    0.75370   0.84690   0.22590   1.000
    C331    C    0.59950   0.75890   0.28050   1.000
    H303    H    0.59770   0.75660   0.30990   1.000
    C332    C    0.63420   0.77700   0.26230   1.000
    H304    H    0.65620   0.78720   0.27930   1.000
    C333    C    0.60480   0.76550   0.19440   1.000
    H305    H    0.60660   0.76770   0.16510   1.000
    C334    C    0.57000   0.74730   0.21260   1.000
    H306    H    0.54810   0.73710   0.19570   1.000
    C335    C    0.51450   0.68690   0.25990   1.000
    H307    H    0.52550   0.67570   0.23490   1.000
    C336    C    0.48230   0.66720   0.28020   1.000
    H308    H    0.47080   0.64230   0.26910   1.000
    O83     O    0.39680   0.71700   0.35350   1.000
    O84     O    0.83360   0.88620   0.20660   1.000
    O85     O    0.05090   0.16390   0.09970   1.000
    C337    C    0.04120   0.16960   0.98990   1.000
    H309    H    0.06960   0.17040   0.98180   1.000
    C338    C    0.78770   0.31520   0.36040   1.000
    H310    H    0.78580   0.31610   0.38980   1.000
    C339    C    0.82150   0.29500   0.34250   1.000
    H311    H    0.83630   0.27190   0.36030   1.000
    C340    C    0.82620   0.29800   0.29950   1.000
    C341    C    0.79700   0.31400   0.27440   1.000
    H312    H    0.79680   0.30240   0.24550   1.000
    C342    C    0.76320   0.33420   0.29230   1.000
    H313    H    0.74630   0.34690   0.27410   1.000
    C343    C    0.90050   0.25890   0.21950   1.000
    H314    H    0.90230   0.25660   0.19010   1.000
    C344    C    0.86580   0.27700   0.23770   1.000
    H315    H    0.84380   0.28720   0.22070   1.000
    C345    C    0.89520   0.26550   0.30560   1.000
    H316    H    0.89340   0.26770   0.33490   1.000
    C346    C    0.93000   0.24730   0.28740   1.000
    H317    H    0.95190   0.23710   0.30430   1.000
    C347    C    0.98550   0.18690   0.24010   1.000
    H318    H    0.97450   0.17570   0.26510   1.000
    C348    C    0.01770   0.16720   0.21980   1.000
    H319    H    0.02920   0.14230   0.23090   1.000
    O86     O    0.10320   0.21700   0.14650   1.000
    O87     O    0.66640   0.38620   0.29340   1.000
    O88     O    0.55090   0.66390   0.59970   1.000
    C349    C    0.54120   0.66960   0.48990   1.000
    H320    H    0.56960   0.67040   0.48180   1.000
    C350    C    0.28770   0.81520   0.86040   1.000
    H321    H    0.28580   0.81610   0.88980   1.000
    C351    C    0.32150   0.79500   0.84250   1.000
    H322    H    0.33630   0.77190   0.86030   1.000
    C352    C    0.32620   0.79800   0.79950   1.000
    C353    C    0.29700   0.81400   0.77440   1.000
    H323    H    0.29680   0.80240   0.74550   1.000
    C354    C    0.26320   0.83420   0.79230   1.000
    H324    H    0.24630   0.84690   0.77410   1.000
    C355    C    0.40050   0.75890   0.71950   1.000
    H325    H    0.40230   0.75660   0.69010   1.000
    C356    C    0.36580   0.77700   0.73770   1.000
    H326    H    0.34380   0.78720   0.72070   1.000
    C357    C    0.39520   0.76550   0.80560   1.000
    H327    H    0.39340   0.76770   0.83490   1.000
    C358    C    0.43000   0.74730   0.78740   1.000
    H328    H    0.45190   0.73710   0.80430   1.000
    C359    C    0.48550   0.68690   0.74010   1.000
    H329    H    0.47450   0.67570   0.76510   1.000
    C360    C    0.51770   0.66720   0.71980   1.000
    H330    H    0.52920   0.64230   0.73090   1.000
    O89     O    0.60320   0.71700   0.64650   1.000
    O90     O    0.16640   0.88620   0.79340   1.000
    O91     O    0.94910   0.83610   0.09970   1.000
    C361    C    0.95880   0.83040   0.98990   1.000
    H331    H    0.93040   0.82960   0.98180   1.000
    C362    C    0.21230   0.68480   0.36040   1.000
    H332    H    0.21420   0.68390   0.38980   1.000
    C363    C    0.17850   0.70500   0.34250   1.000
    H333    H    0.16370   0.72810   0.36030   1.000
    C364    C    0.17380   0.70200   0.29950   1.000
    C365    C    0.20300   0.68600   0.27440   1.000
    H334    H    0.20320   0.69760   0.24550   1.000
    C366    C    0.23680   0.66580   0.29230   1.000
    H335    H    0.25370   0.65310   0.27410   1.000
    C367    C    0.09950   0.74110   0.21950   1.000
    H336    H    0.09770   0.74340   0.19010   1.000
    C368    C    0.13420   0.72300   0.23770   1.000
    H337    H    0.15620   0.71280   0.22070   1.000
    C369    C    0.10480   0.73450   0.30560   1.000
    H338    H    0.10660   0.73230   0.33490   1.000
    C370    C    0.07000   0.75270   0.28740   1.000
    H339    H    0.04810   0.76290   0.30430   1.000
    C371    C    0.01450   0.81310   0.24010   1.000
    H340    H    0.02550   0.82430   0.26510   1.000
    C372    C    0.98230   0.83280   0.21980   1.000
    H341    H    0.97080   0.85770   0.23090   1.000
    O92     O    0.89680   0.78300   0.14650   1.000
    O93     O    0.33360   0.61380   0.29340   1.000
    O94     O    0.44910   0.33610   0.59970   1.000
    C373    C    0.45880   0.33040   0.48990   1.000
    H342    H    0.43040   0.32960   0.48180   1.000
    C374    C    0.71230   0.18480   0.86040   1.000
    H343    H    0.71420   0.18390   0.88980   1.000
    C375    C    0.67850   0.20500   0.84250   1.000
    H344    H    0.66370   0.22810   0.86030   1.000
    C376    C    0.67380   0.20200   0.79950   1.000
    C377    C    0.70300   0.18600   0.77440   1.000
    H345    H    0.70320   0.19760   0.74550   1.000
    C378    C    0.73680   0.16580   0.79230   1.000
    H346    H    0.75370   0.15310   0.77410   1.000
    C379    C    0.59950   0.24110   0.71950   1.000
    H347    H    0.59770   0.24340   0.69010   1.000
    C380    C    0.63420   0.22300   0.73770   1.000
    H348    H    0.65620   0.21280   0.72070   1.000
    C381    C    0.60480   0.23450   0.80560   1.000
    H349    H    0.60660   0.23230   0.83490   1.000
    C382    C    0.57000   0.25270   0.78740   1.000
    H350    H    0.54810   0.26290   0.80430   1.000
    C383    C    0.51450   0.31310   0.74010   1.000
    H351    H    0.52550   0.32430   0.76510   1.000
    C384    C    0.48230   0.33280   0.71980   1.000
    H352    H    0.47080   0.35770   0.73090   1.000
    O95     O    0.39680   0.28300   0.64650   1.000
    O96     O    0.83360   0.11380   0.79340   1.000
    O97     O    0.83610   0.90030   0.05090   1.000
    C385    C    0.83040   0.01010   0.04120   1.000
    H353    H    0.82960   0.01820   0.06960   1.000
    C386    C    0.68480   0.63960   0.78770   1.000
    H354    H    0.68390   0.61020   0.78580   1.000
    C387    C    0.70500   0.65750   0.82150   1.000
    H355    H    0.72810   0.63970   0.83630   1.000
    C388    C    0.70200   0.70050   0.82620   1.000
    C389    C    0.68600   0.72560   0.79700   1.000
    H356    H    0.69760   0.75450   0.79680   1.000
    C390    C    0.66580   0.70770   0.76320   1.000
    H357    H    0.65310   0.72590   0.74630   1.000
    C391    C    0.74110   0.78050   0.90050   1.000
    H358    H    0.74340   0.80990   0.90230   1.000
    C392    C    0.72300   0.76230   0.86580   1.000
    H359    H    0.71280   0.77930   0.84380   1.000
    C393    C    0.73450   0.69440   0.89520   1.000
    H360    H    0.73230   0.66510   0.89340   1.000
    C394    C    0.75270   0.71260   0.93000   1.000
    H361    H    0.76290   0.69570   0.95190   1.000
    C395    C    0.81310   0.75990   0.98550   1.000
    H362    H    0.82430   0.73490   0.97450   1.000
    C396    C    0.83280   0.78020   0.01770   1.000
    H363    H    0.85770   0.76910   0.02920   1.000
    O98     O    0.78300   0.85350   0.10320   1.000
    O99     O    0.61380   0.70660   0.66640   1.000
    O100    O    0.33610   0.40030   0.55090   1.000
    C397    C    0.33040   0.51010   0.54120   1.000
    H364    H    0.32960   0.51820   0.56960   1.000
    C398    C    0.18480   0.13960   0.28770   1.000
    H365    H    0.18390   0.11020   0.28580   1.000
    C399    C    0.20500   0.15750   0.32150   1.000
    H366    H    0.22810   0.13970   0.33630   1.000
    C400    C    0.20200   0.20050   0.32620   1.000
    C401    C    0.18600   0.22560   0.29700   1.000
    H367    H    0.19760   0.25450   0.29680   1.000
    C402    C    0.16580   0.20770   0.26320   1.000
    H368    H    0.15310   0.22590   0.24630   1.000
    C403    C    0.24110   0.28050   0.40050   1.000
    H369    H    0.24340   0.30990   0.40230   1.000
    C404    C    0.22300   0.26230   0.36580   1.000
    H370    H    0.21280   0.27930   0.34380   1.000
    C405    C    0.23450   0.19440   0.39520   1.000
    H371    H    0.23230   0.16510   0.39340   1.000
    C406    C    0.25270   0.21260   0.43000   1.000
    H372    H    0.26290   0.19570   0.45190   1.000
    C407    C    0.31310   0.25990   0.48550   1.000
    H373    H    0.32430   0.23490   0.47450   1.000
    C408    C    0.33280   0.28020   0.51770   1.000
    H374    H    0.35770   0.26910   0.52920   1.000
    O101    O    0.28300   0.35350   0.60320   1.000
    O102    O    0.11380   0.20660   0.16640   1.000
    O103    O    0.16390   0.90030   0.94910   1.000
    C409    C    0.16960   0.01010   0.95880   1.000
    H375    H    0.17040   0.01820   0.93040   1.000
    C410    C    0.31520   0.63960   0.21230   1.000
    H376    H    0.31610   0.61020   0.21420   1.000
    C411    C    0.29500   0.65750   0.17850   1.000
    H377    H    0.27190   0.63970   0.16370   1.000
    C412    C    0.29800   0.70050   0.17380   1.000
    C413    C    0.31400   0.72560   0.20300   1.000
    H378    H    0.30240   0.75450   0.20320   1.000
    C414    C    0.33420   0.70770   0.23680   1.000
    H379    H    0.34690   0.72590   0.25370   1.000
    C415    C    0.25890   0.78050   0.09950   1.000
    H380    H    0.25660   0.80990   0.09770   1.000
    C416    C    0.27700   0.76230   0.13420   1.000
    H381    H    0.28720   0.77930   0.15620   1.000
    C417    C    0.26550   0.69440   0.10480   1.000
    H382    H    0.26770   0.66510   0.10660   1.000
    C418    C    0.24730   0.71260   0.07000   1.000
    H383    H    0.23710   0.69570   0.04810   1.000
    C419    C    0.18690   0.75990   0.01450   1.000
    H384    H    0.17570   0.73490   0.02550   1.000
    C420    C    0.16720   0.78020   0.98230   1.000
    H385    H    0.14230   0.76910   0.97080   1.000
    O104    O    0.21700   0.85350   0.89680   1.000
    O105    O    0.38620   0.70660   0.33360   1.000
    O106    O    0.66390   0.40030   0.44910   1.000
    C421    C    0.66960   0.51010   0.45880   1.000
    H386    H    0.67040   0.51820   0.43040   1.000
    C422    C    0.81520   0.13960   0.71230   1.000
    H387    H    0.81610   0.11020   0.71420   1.000
    C423    C    0.79500   0.15750   0.67850   1.000
    H388    H    0.77190   0.13970   0.66370   1.000
    C424    C    0.79800   0.20050   0.67380   1.000
    C425    C    0.81400   0.22560   0.70300   1.000
    H389    H    0.80240   0.25450   0.70320   1.000
    C426    C    0.83420   0.20770   0.73680   1.000
    H390    H    0.84690   0.22590   0.75370   1.000
    C427    C    0.75890   0.28050   0.59950   1.000
    H391    H    0.75660   0.30990   0.59770   1.000
    C428    C    0.77700   0.26230   0.63420   1.000
    H392    H    0.78720   0.27930   0.65620   1.000
    C429    C    0.76550   0.19440   0.60480   1.000
    H393    H    0.76770   0.16510   0.60660   1.000
    C430    C    0.74730   0.21260   0.57000   1.000
    H394    H    0.73710   0.19570   0.54810   1.000
    C431    C    0.68690   0.25990   0.51450   1.000
    H395    H    0.67570   0.23490   0.52550   1.000
    C432    C    0.66720   0.28020   0.48230   1.000
    H396    H    0.64230   0.26910   0.47080   1.000
    O107    O    0.71700   0.35350   0.39680   1.000
    O108    O    0.88620   0.20660   0.83360   1.000
    O109    O    0.16390   0.09970   0.05090   1.000
    C433    C    0.16960   0.98990   0.04120   1.000
    H397    H    0.17040   0.98180   0.06960   1.000
    C434    C    0.31520   0.36040   0.78770   1.000
    H398    H    0.31610   0.38980   0.78580   1.000
    C435    C    0.29500   0.34250   0.82150   1.000
    H399    H    0.27190   0.36030   0.83630   1.000
    C436    C    0.29800   0.29950   0.82620   1.000
    C437    C    0.31400   0.27440   0.79700   1.000
    H400    H    0.30240   0.24550   0.79680   1.000
    C438    C    0.33420   0.29230   0.76320   1.000
    H401    H    0.34690   0.27410   0.74630   1.000
    C439    C    0.25890   0.21950   0.90050   1.000
    H402    H    0.25660   0.19010   0.90230   1.000
    C440    C    0.27700   0.23770   0.86580   1.000
    H403    H    0.28720   0.22070   0.84380   1.000
    C441    C    0.26550   0.30560   0.89520   1.000
    H404    H    0.26770   0.33490   0.89340   1.000
    C442    C    0.24730   0.28740   0.93000   1.000
    H405    H    0.23710   0.30430   0.95190   1.000
    C443    C    0.18690   0.24010   0.98550   1.000
    H406    H    0.17570   0.26510   0.97450   1.000
    C444    C    0.16720   0.21980   0.01770   1.000
    H407    H    0.14230   0.23090   0.02920   1.000
    O110    O    0.21700   0.14650   0.10320   1.000
    O111    O    0.38620   0.29340   0.66640   1.000
    O112    O    0.66390   0.59970   0.55090   1.000
    C445    C    0.66960   0.48990   0.54120   1.000
    H408    H    0.67040   0.48180   0.56960   1.000
    C446    C    0.81520   0.86040   0.28770   1.000
    H409    H    0.81610   0.88980   0.28580   1.000
    C447    C    0.79500   0.84250   0.32150   1.000
    H410    H    0.77190   0.86030   0.33630   1.000
    C448    C    0.79800   0.79950   0.32620   1.000
    C449    C    0.81400   0.77440   0.29700   1.000
    H411    H    0.80240   0.74550   0.29680   1.000
    C450    C    0.83420   0.79230   0.26320   1.000
    H412    H    0.84690   0.77410   0.24630   1.000
    C451    C    0.75890   0.71950   0.40050   1.000
    H413    H    0.75660   0.69010   0.40230   1.000
    C452    C    0.77700   0.73770   0.36580   1.000
    H414    H    0.78720   0.72070   0.34380   1.000
    C453    C    0.76550   0.80560   0.39520   1.000
    H415    H    0.76770   0.83490   0.39340   1.000
    C454    C    0.74730   0.78740   0.43000   1.000
    H416    H    0.73710   0.80430   0.45190   1.000
    C455    C    0.68690   0.74010   0.48550   1.000
    H417    H    0.67570   0.76510   0.47450   1.000
    C456    C    0.66720   0.71980   0.51770   1.000
    H418    H    0.64230   0.73090   0.52920   1.000
    O113    O    0.71700   0.64650   0.60320   1.000
    O114    O    0.88620   0.79340   0.16640   1.000
    O115    O    0.83610   0.09970   0.94910   1.000
    C457    C    0.83040   0.98990   0.95880   1.000
    H419    H    0.82960   0.98180   0.93040   1.000
    C458    C    0.68480   0.36040   0.21230   1.000
    H420    H    0.68390   0.38980   0.21420   1.000
    C459    C    0.70500   0.34250   0.17850   1.000
    H421    H    0.72810   0.36030   0.16370   1.000
    C460    C    0.70200   0.29950   0.17380   1.000
    C461    C    0.68600   0.27440   0.20300   1.000
    H422    H    0.69760   0.24550   0.20320   1.000
    C462    C    0.66580   0.29230   0.23680   1.000
    H423    H    0.65310   0.27410   0.25370   1.000
    C463    C    0.74110   0.21950   0.09950   1.000
    H424    H    0.74340   0.19010   0.09770   1.000
    C464    C    0.72300   0.23770   0.13420   1.000
    H425    H    0.71280   0.22070   0.15620   1.000
    C465    C    0.73450   0.30560   0.10480   1.000
    H426    H    0.73230   0.33490   0.10660   1.000
    C466    C    0.75270   0.28740   0.07000   1.000
    H427    H    0.76290   0.30430   0.04810   1.000
    C467    C    0.81310   0.24010   0.01450   1.000
    H428    H    0.82430   0.26510   0.02550   1.000
    C468    C    0.83280   0.21980   0.98230   1.000
    H429    H    0.85770   0.23090   0.97080   1.000
    O116    O    0.78300   0.14650   0.89680   1.000
    O117    O    0.61380   0.29340   0.33360   1.000
    O118    O    0.33610   0.59970   0.44910   1.000
    C469    C    0.33040   0.48990   0.45880   1.000
    H430    H    0.32960   0.48180   0.43040   1.000
    C470    C    0.18480   0.86040   0.71230   1.000
    H431    H    0.18390   0.88980   0.71420   1.000
    C471    C    0.20500   0.84250   0.67850   1.000
    H432    H    0.22810   0.86030   0.66370   1.000
    C472    C    0.20200   0.79950   0.67380   1.000
    C473    C    0.18600   0.77440   0.70300   1.000
    H433    H    0.19760   0.74550   0.70320   1.000
    C474    C    0.16580   0.79230   0.73680   1.000
    H434    H    0.15310   0.77410   0.75370   1.000
    C475    C    0.24110   0.71950   0.59950   1.000
    H435    H    0.24340   0.69010   0.59770   1.000
    C476    C    0.22300   0.73770   0.63420   1.000
    H436    H    0.21280   0.72070   0.65620   1.000
    C477    C    0.23450   0.80560   0.60480   1.000
    H437    H    0.23230   0.83490   0.60660   1.000
    C478    C    0.25270   0.78740   0.57000   1.000
    H438    H    0.26290   0.80430   0.54810   1.000
    C479    C    0.31310   0.74010   0.51450   1.000
    H439    H    0.32430   0.76510   0.52550   1.000
    C480    C    0.33280   0.71980   0.48230   1.000
    H440    H    0.35770   0.73090   0.47080   1.000
    O119    O    0.28300   0.64650   0.39680   1.000
    O120    O    0.11380   0.79340   0.83360   1.000
    O121    O    0.90030   0.05090   0.83610   1.000
    C481    C    0.01010   0.04120   0.83040   1.000
    H441    H    0.01820   0.06960   0.82960   1.000
    C482    C    0.63960   0.78770   0.68480   1.000
    H442    H    0.61020   0.78580   0.68390   1.000
    C483    C    0.65750   0.82150   0.70500   1.000
    H443    H    0.63970   0.83630   0.72810   1.000
    C484    C    0.70050   0.82620   0.70200   1.000
    C485    C    0.72560   0.79700   0.68600   1.000
    H444    H    0.75450   0.79680   0.69760   1.000
    C486    C    0.70770   0.76320   0.66580   1.000
    H445    H    0.72590   0.74630   0.65310   1.000
    C487    C    0.78050   0.90050   0.74110   1.000
    H446    H    0.80990   0.90230   0.74340   1.000
    C488    C    0.76230   0.86580   0.72300   1.000
    H447    H    0.77930   0.84380   0.71280   1.000
    C489    C    0.69440   0.89520   0.73450   1.000
    H448    H    0.66510   0.89340   0.73230   1.000
    C490    C    0.71260   0.93000   0.75270   1.000
    H449    H    0.69570   0.95190   0.76290   1.000
    C491    C    0.75990   0.98550   0.81310   1.000
    H450    H    0.73490   0.97450   0.82430   1.000
    C492    C    0.78020   0.01770   0.83280   1.000
    H451    H    0.76910   0.02920   0.85770   1.000
    O122    O    0.85350   0.10320   0.78300   1.000
    O123    O    0.70660   0.66640   0.61380   1.000
    O124    O    0.40030   0.55090   0.33610   1.000
    C493    C    0.51010   0.54120   0.33040   1.000
    H452    H    0.51820   0.56960   0.32960   1.000
    C494    C    0.13960   0.28770   0.18480   1.000
    H453    H    0.11020   0.28580   0.18390   1.000
    C495    C    0.15750   0.32150   0.20500   1.000
    H454    H    0.13970   0.33630   0.22810   1.000
    C496    C    0.20050   0.32620   0.20200   1.000
    C497    C    0.22560   0.29700   0.18600   1.000
    H455    H    0.25450   0.29680   0.19760   1.000
    C498    C    0.20770   0.26320   0.16580   1.000
    H456    H    0.22590   0.24630   0.15310   1.000
    C499    C    0.28050   0.40050   0.24110   1.000
    H457    H    0.30990   0.40230   0.24340   1.000
    C500    C    0.26230   0.36580   0.22300   1.000
    H458    H    0.27930   0.34380   0.21280   1.000
    C501    C    0.19440   0.39520   0.23450   1.000
    H459    H    0.16510   0.39340   0.23230   1.000
    C502    C    0.21260   0.43000   0.25270   1.000
    H460    H    0.19570   0.45190   0.26290   1.000
    C503    C    0.25990   0.48550   0.31310   1.000
    H461    H    0.23490   0.47450   0.32430   1.000
    C504    C    0.28020   0.51770   0.33280   1.000
    H462    H    0.26910   0.52920   0.35770   1.000
    O125    O    0.35350   0.60320   0.28300   1.000
    O126    O    0.20660   0.16640   0.11380   1.000
    O127    O    0.90030   0.94910   0.16390   1.000
    C505    C    0.01010   0.95880   0.16960   1.000
    H463    H    0.01820   0.93040   0.17040   1.000
    C506    C    0.63960   0.21230   0.31520   1.000
    H464    H    0.61020   0.21420   0.31610   1.000
    C507    C    0.65750   0.17850   0.29500   1.000
    H465    H    0.63970   0.16370   0.27190   1.000
    C508    C    0.70050   0.17380   0.29800   1.000
    C509    C    0.72560   0.20300   0.31400   1.000
    H466    H    0.75450   0.20320   0.30240   1.000
    C510    C    0.70770   0.23680   0.33420   1.000
    H467    H    0.72590   0.25370   0.34690   1.000
    C511    C    0.78050   0.09950   0.25890   1.000
    H468    H    0.80990   0.09770   0.25660   1.000
    C512    C    0.76230   0.13420   0.27700   1.000
    H469    H    0.77930   0.15620   0.28720   1.000
    C513    C    0.69440   0.10480   0.26550   1.000
    H470    H    0.66510   0.10660   0.26770   1.000
    C514    C    0.71260   0.07000   0.24730   1.000
    H471    H    0.69570   0.04810   0.23710   1.000
    C515    C    0.75990   0.01450   0.18690   1.000
    H472    H    0.73490   0.02550   0.17570   1.000
    C516    C    0.78020   0.98230   0.16720   1.000
    H473    H    0.76910   0.97080   0.14230   1.000
    O128    O    0.85350   0.89680   0.21700   1.000
    O129    O    0.70660   0.33360   0.38620   1.000
    O130    O    0.40030   0.44910   0.66390   1.000
    C517    C    0.51010   0.45880   0.66960   1.000
    H474    H    0.51820   0.43040   0.67040   1.000
    C518    C    0.13960   0.71230   0.81520   1.000
    H475    H    0.11020   0.71420   0.81610   1.000
    C519    C    0.15750   0.67850   0.79500   1.000
    H476    H    0.13970   0.66370   0.77190   1.000
    C520    C    0.20050   0.67380   0.79800   1.000
    C521    C    0.22560   0.70300   0.81400   1.000
    H477    H    0.25450   0.70320   0.80240   1.000
    C522    C    0.20770   0.73680   0.83420   1.000
    H478    H    0.22590   0.75370   0.84690   1.000
    C523    C    0.28050   0.59950   0.75890   1.000
    H479    H    0.30990   0.59770   0.75660   1.000
    C524    C    0.26230   0.63420   0.77700   1.000
    H480    H    0.27930   0.65620   0.78720   1.000
    C525    C    0.19440   0.60480   0.76550   1.000
    H481    H    0.16510   0.60660   0.76770   1.000
    C526    C    0.21260   0.57000   0.74730   1.000
    H482    H    0.19570   0.54810   0.73710   1.000
    C527    C    0.25990   0.51450   0.68690   1.000
    H483    H    0.23490   0.52550   0.67570   1.000
    C528    C    0.28020   0.48230   0.66720   1.000
    H484    H    0.26910   0.47080   0.64230   1.000
    O131    O    0.35350   0.39680   0.71700   1.000
    O132    O    0.20660   0.83360   0.88620   1.000
    O133    O    0.09970   0.05090   0.16390   1.000
    C529    C    0.98990   0.04120   0.16960   1.000
    H485    H    0.98180   0.06960   0.17040   1.000
    C530    C    0.36040   0.78770   0.31520   1.000
    H486    H    0.38980   0.78580   0.31610   1.000
    C531    C    0.34250   0.82150   0.29500   1.000
    H487    H    0.36030   0.83630   0.27190   1.000
    C532    C    0.29950   0.82620   0.29800   1.000
    C533    C    0.27440   0.79700   0.31400   1.000
    H488    H    0.24550   0.79680   0.30240   1.000
    C534    C    0.29230   0.76320   0.33420   1.000
    H489    H    0.27410   0.74630   0.34690   1.000
    C535    C    0.21950   0.90050   0.25890   1.000
    H490    H    0.19010   0.90230   0.25660   1.000
    C536    C    0.23770   0.86580   0.27700   1.000
    H491    H    0.22070   0.84380   0.28720   1.000
    C537    C    0.30560   0.89520   0.26550   1.000
    H492    H    0.33490   0.89340   0.26770   1.000
    C538    C    0.28740   0.93000   0.24730   1.000
    H493    H    0.30430   0.95190   0.23710   1.000
    C539    C    0.24010   0.98550   0.18690   1.000
    H494    H    0.26510   0.97450   0.17570   1.000
    C540    C    0.21980   0.01770   0.16720   1.000
    H495    H    0.23090   0.02920   0.14230   1.000
    O134    O    0.14650   0.10320   0.21700   1.000
    O135    O    0.29340   0.66640   0.38620   1.000
    O136    O    0.59970   0.55090   0.66390   1.000
    C541    C    0.48990   0.54120   0.66960   1.000
    H496    H    0.48180   0.56960   0.67040   1.000
    C542    C    0.86040   0.28770   0.81520   1.000
    H497    H    0.88980   0.28580   0.81610   1.000
    C543    C    0.84250   0.32150   0.79500   1.000
    H498    H    0.86030   0.33630   0.77190   1.000
    C544    C    0.79950   0.32620   0.79800   1.000
    C545    C    0.77440   0.29700   0.81400   1.000
    H499    H    0.74550   0.29680   0.80240   1.000
    C546    C    0.79230   0.26320   0.83420   1.000
    H500    H    0.77410   0.24630   0.84690   1.000
    C547    C    0.71950   0.40050   0.75890   1.000
    H501    H    0.69010   0.40230   0.75660   1.000
    C548    C    0.73770   0.36580   0.77700   1.000
    H502    H    0.72070   0.34380   0.78720   1.000
    C549    C    0.80560   0.39520   0.76550   1.000
    H503    H    0.83490   0.39340   0.76770   1.000
    C550    C    0.78740   0.43000   0.74730   1.000
    H504    H    0.80430   0.45190   0.73710   1.000
    C551    C    0.74010   0.48550   0.68690   1.000
    H505    H    0.76510   0.47450   0.67570   1.000
    C552    C    0.71980   0.51770   0.66720   1.000
    H506    H    0.73090   0.52920   0.64230   1.000
    O137    O    0.64650   0.60320   0.71700   1.000
    O138    O    0.79340   0.16640   0.88620   1.000
    O139    O    0.09970   0.94910   0.83610   1.000
    C553    C    0.98990   0.95880   0.83040   1.000
    H507    H    0.98180   0.93040   0.82960   1.000
    C554    C    0.36040   0.21230   0.68480   1.000
    H508    H    0.38980   0.21420   0.68390   1.000
    C555    C    0.34250   0.17850   0.70500   1.000
    H509    H    0.36030   0.16370   0.72810   1.000
    C556    C    0.29950   0.17380   0.70200   1.000
    C557    C    0.27440   0.20300   0.68600   1.000
    H510    H    0.24550   0.20320   0.69760   1.000
    C558    C    0.29230   0.23680   0.66580   1.000
    H511    H    0.27410   0.25370   0.65310   1.000
    C559    C    0.21950   0.09950   0.74110   1.000
    H512    H    0.19010   0.09770   0.74340   1.000
    C560    C    0.23770   0.13420   0.72300   1.000
    H513    H    0.22070   0.15620   0.71280   1.000
    C561    C    0.30560   0.10480   0.73450   1.000
    H514    H    0.33490   0.10660   0.73230   1.000
    C562    C    0.28740   0.07000   0.75270   1.000
    H515    H    0.30430   0.04810   0.76290   1.000
    C563    C    0.24010   0.01450   0.81310   1.000
    H516    H    0.26510   0.02550   0.82430   1.000
    C564    C    0.21980   0.98230   0.83280   1.000
    H517    H    0.23090   0.97080   0.85770   1.000
    O140    O    0.14650   0.89680   0.78300   1.000
    O141    O    0.29340   0.33360   0.61380   1.000
    O142    O    0.59970   0.44910   0.33610   1.000
    C565    C    0.48990   0.45880   0.33040   1.000
    H518    H    0.48180   0.43040   0.32960   1.000
    C566    C    0.86040   0.71230   0.18480   1.000
    H519    H    0.88980   0.71420   0.18390   1.000
    C567    C    0.84250   0.67850   0.20500   1.000
    H520    H    0.86030   0.66370   0.22810   1.000
    C568    C    0.79950   0.67380   0.20200   1.000
    C569    C    0.77440   0.70300   0.18600   1.000
    H521    H    0.74550   0.70320   0.19760   1.000
    C570    C    0.79230   0.73680   0.16580   1.000
    H522    H    0.77410   0.75370   0.15310   1.000
    C571    C    0.71950   0.59950   0.24110   1.000
    H523    H    0.69010   0.59770   0.24340   1.000
    C572    C    0.73770   0.63420   0.22300   1.000
    H524    H    0.72070   0.65620   0.21280   1.000
    C573    C    0.80560   0.60480   0.23450   1.000
    H525    H    0.83490   0.60660   0.23230   1.000
    C574    C    0.78740   0.57000   0.25270   1.000
    H526    H    0.80430   0.54810   0.26290   1.000
    C575    C    0.74010   0.51450   0.31310   1.000
    H527    H    0.76510   0.52550   0.32430   1.000
    C576    C    0.71980   0.48230   0.33280   1.000
    H528    H    0.73090   0.47080   0.35770   1.000
    O143    O    0.64650   0.39680   0.28300   1.000
    O144    O    0.79340   0.83360   0.11380   1.000
    Ni1     Ni   0.84493   0.08146   0.84493   1.000
    N1      N    0.81640   0.03300   0.81640   1.000
    C577    C    0.66479   0.75860   0.66479   1.000
    C578    C    0.64240   0.72230   0.64240   1.000
    C579    C    0.77650   0.96920   0.77650   1.000
    C580    C    0.75580   0.93260   0.75580   1.000
    C581    C    0.71950   0.86310   0.71950   1.000
    Ni2     Ni   0.34493   0.58146   0.34493   1.000
    N2      N    0.31640   0.53300   0.31640   1.000
    C582    C    0.16479   0.25860   0.16479   1.000
    C583    C    0.14240   0.22230   0.14240   1.000
    C584    C    0.27650   0.46920   0.27650   1.000
    C585    C    0.25580   0.43260   0.25580   1.000
    C586    C    0.21950   0.36310   0.21950   1.000
    Ni3     Ni   0.15507   0.91854   0.84493   1.000
    N3      N    0.18360   0.96700   0.81640   1.000
    C587    C    0.33521   0.24140   0.66479   1.000
    C588    C    0.35760   0.27770   0.64240   1.000
    C589    C    0.22350   0.03080   0.77650   1.000
    C590    C    0.24420   0.06740   0.75580   1.000
    C591    C    0.28050   0.13690   0.71950   1.000
    Ni4     Ni   0.65507   0.41854   0.34493   1.000
    N4      N    0.68360   0.46700   0.31640   1.000
    C592    C    0.83521   0.74140   0.16479   1.000
    C593    C    0.85760   0.77770   0.14240   1.000
    C594    C    0.72350   0.53080   0.27650   1.000
    C595    C    0.74420   0.56740   0.25580   1.000
    C596    C    0.78050   0.63690   0.21950   1.000
    Ni5     Ni   0.15507   0.08146   0.15507   1.000
    N5      N    0.18360   0.03300   0.18360   1.000
    C597    C    0.33521   0.75860   0.33521   1.000
    C598    C    0.35760   0.72230   0.35760   1.000
    C599    C    0.22350   0.96920   0.22350   1.000
    C600    C    0.24420   0.93260   0.24420   1.000
    C601    C    0.28050   0.86310   0.28050   1.000
    Ni6     Ni   0.65507   0.58146   0.65507   1.000
    N6      N    0.68360   0.53300   0.68360   1.000
    C602    C    0.83521   0.25860   0.83521   1.000
    C603    C    0.85760   0.22230   0.85760   1.000
    C604    C    0.72350   0.46920   0.72350   1.000
    C605    C    0.74420   0.43260   0.74420   1.000
    C606    C    0.78050   0.36310   0.78050   1.000
    Ni7     Ni   0.84493   0.91854   0.15507   1.000
    N7      N    0.81640   0.96700   0.18360   1.000
    C607    C    0.66479   0.24140   0.33521   1.000
    C608    C    0.64240   0.27770   0.35760   1.000
    C609    C    0.77650   0.03080   0.22350   1.000
    C610    C    0.75580   0.06740   0.24420   1.000
    C611    C    0.71950   0.13690   0.28050   1.000
    Ni8     Ni   0.34493   0.41854   0.65507   1.000
    N8      N    0.31640   0.46700   0.68360   1.000
    C612    C    0.16479   0.74140   0.83521   1.000
    C613    C    0.14240   0.77770   0.85760   1.000
    C614    C    0.27650   0.53080   0.72350   1.000
    C615    C    0.25580   0.56740   0.74420   1.000
    C616    C    0.21950   0.63690   0.78050   1.000
    Ni9     Ni   0.84493   0.84493   0.08146   1.000
    N9      N    0.81640   0.81640   0.03300   1.000
    C617    C    0.66479   0.66479   0.75860   1.000
    C618    C    0.64240   0.64240   0.72230   1.000
    C619    C    0.77650   0.77650   0.96920   1.000
    C620    C    0.75580   0.75580   0.93260   1.000
    C621    C    0.71950   0.71950   0.86310   1.000
    Ni10    Ni   0.34493   0.34493   0.58146   1.000
    N10     N    0.31640   0.31640   0.53300   1.000
    C622    C    0.16479   0.16479   0.25860   1.000
    C623    C    0.14240   0.14240   0.22230   1.000
    C624    C    0.27650   0.27650   0.46920   1.000
    C625    C    0.25580   0.25580   0.43260   1.000
    C626    C    0.21950   0.21950   0.36310   1.000
    Ni11    Ni   0.84493   0.15507   0.91854   1.000
    N11     N    0.81640   0.18360   0.96700   1.000
    C627    C    0.66479   0.33521   0.24140   1.000
    C628    C    0.64240   0.35760   0.27770   1.000
    C629    C    0.77650   0.22350   0.03080   1.000
    C630    C    0.75580   0.24420   0.06740   1.000
    C631    C    0.71950   0.28050   0.13690   1.000
    Ni12    Ni   0.34493   0.65507   0.41854   1.000
    N12     N    0.31640   0.68360   0.46700   1.000
    C632    C    0.16479   0.83521   0.74140   1.000
    C633    C    0.14240   0.85760   0.77770   1.000
    C634    C    0.27650   0.72350   0.53080   1.000
    C635    C    0.25580   0.74420   0.56740   1.000
    C636    C    0.21950   0.78050   0.63690   1.000
    Ni13    Ni   0.15507   0.15507   0.08146   1.000
    N13     N    0.18360   0.18360   0.03300   1.000
    C637    C    0.33521   0.33521   0.75860   1.000
    C638    C    0.35760   0.35760   0.72230   1.000
    C639    C    0.22350   0.22350   0.96920   1.000
    C640    C    0.24420   0.24420   0.93260   1.000
    C641    C    0.28050   0.28050   0.86310   1.000
    Ni14    Ni   0.65507   0.65507   0.58146   1.000
    N14     N    0.68360   0.68360   0.53300   1.000
    C642    C    0.83521   0.83521   0.25860   1.000
    C643    C    0.85760   0.85760   0.22230   1.000
    C644    C    0.72350   0.72350   0.46920   1.000
    C645    C    0.74420   0.74420   0.43260   1.000
    C646    C    0.78050   0.78050   0.36310   1.000
    Ni15    Ni   0.15507   0.84493   0.91854   1.000
    N15     N    0.18360   0.81640   0.96700   1.000
    C647    C    0.33521   0.66479   0.24140   1.000
    C648    C    0.35760   0.64240   0.27770   1.000
    C649    C    0.22350   0.77650   0.03080   1.000
    C650    C    0.24420   0.75580   0.06740   1.000
    C651    C    0.28050   0.71950   0.13690   1.000
    Ni16    Ni   0.65507   0.34493   0.41854   1.000
    N16     N    0.68360   0.31640   0.46700   1.000
    C652    C    0.83521   0.16479   0.74140   1.000
    C653    C    0.85760   0.14240   0.77770   1.000
    C654    C    0.72350   0.27650   0.53080   1.000
    C655    C    0.74420   0.25580   0.56740   1.000
    C656    C    0.78050   0.21950   0.63690   1.000
    Ni17    Ni   0.08146   0.84493   0.84493   1.000
    N17     N    0.03300   0.81640   0.81640   1.000
    C657    C    0.75860   0.66479   0.66479   1.000
    C658    C    0.72230   0.64240   0.64240   1.000
    C659    C    0.96920   0.77650   0.77650   1.000
    C660    C    0.93260   0.75580   0.75580   1.000
    C661    C    0.86310   0.71950   0.71950   1.000
    Ni18    Ni   0.58146   0.34493   0.34493   1.000
    N18     N    0.53300   0.31640   0.31640   1.000
    C662    C    0.25860   0.16479   0.16479   1.000
    C663    C    0.22230   0.14240   0.14240   1.000
    C664    C    0.46920   0.27650   0.27650   1.000
    C665    C    0.43260   0.25580   0.25580   1.000
    C666    C    0.36310   0.21950   0.21950   1.000
    Ni19    Ni   0.91854   0.84493   0.15507   1.000
    N19     N    0.96700   0.81640   0.18360   1.000
    C667    C    0.24140   0.66479   0.33521   1.000
    C668    C    0.27770   0.64240   0.35760   1.000
    C669    C    0.03080   0.77650   0.22350   1.000
    C670    C    0.06740   0.75580   0.24420   1.000
    C671    C    0.13690   0.71950   0.28050   1.000
    Ni20    Ni   0.41854   0.34493   0.65507   1.000
    N20     N    0.46700   0.31640   0.68360   1.000
    C672    C    0.74140   0.16479   0.83521   1.000
    C673    C    0.77770   0.14240   0.85760   1.000
    C674    C    0.53080   0.27650   0.72350   1.000
    C675    C    0.56740   0.25580   0.74420   1.000
    C676    C    0.63690   0.21950   0.78050   1.000
    Ni21    Ni   0.08146   0.15507   0.15507   1.000
    N21     N    0.03300   0.18360   0.18360   1.000
    C677    C    0.75860   0.33521   0.33521   1.000
    C678    C    0.72230   0.35760   0.35760   1.000
    C679    C    0.96920   0.22350   0.22350   1.000
    C680    C    0.93260   0.24420   0.24420   1.000
    C681    C    0.86310   0.28050   0.28050   1.000
    Ni22    Ni   0.58146   0.65507   0.65507   1.000
    N22     N    0.53300   0.68360   0.68360   1.000
    C682    C    0.25860   0.83521   0.83521   1.000
    C683    C    0.22230   0.85760   0.85760   1.000
    C684    C    0.46920   0.72350   0.72350   1.000
    C685    C    0.43260   0.74420   0.74420   1.000
    C686    C    0.36310   0.78050   0.78050   1.000
    Ni23    Ni   0.91854   0.15507   0.84493   1.000
    N23     N    0.96700   0.18360   0.81640   1.000
    C687    C    0.24140   0.33521   0.66479   1.000
    C688    C    0.27770   0.35760   0.64240   1.000
    C689    C    0.03080   0.22350   0.77650   1.000
    C690    C    0.06740   0.24420   0.75580   1.000
    C691    C    0.13690   0.28050   0.71950   1.000
    Ni24    Ni   0.41854   0.65507   0.34493   1.000
    N24     N    0.46700   0.68360   0.31640   1.000
    C692    C    0.74140   0.83521   0.16479   1.000
    C693    C    0.77770   0.85760   0.14240   1.000
    C694    C    0.53080   0.72350   0.27650   1.000
    C695    C    0.56740   0.74420   0.25580   1.000
    C696    C    0.63690   0.78050   0.21950   1.000
    O145    O    0.87580   0.12420   0.87580   1.000
    O146    O    0.37580   0.62420   0.37580   1.000
    O147    O    0.12420   0.87580   0.87580   1.000
    O148    O    0.62420   0.37580   0.37580   1.000
    O149    O    0.12420   0.12420   0.12420   1.000
    O150    O    0.62420   0.62420   0.62420   1.000
    O151    O    0.87580   0.87580   0.12420   1.000
    O152    O    0.37580   0.37580   0.62420   1.000
    C697    C    0.83150   0.03160   0.96840   1.000
    C698    C    0.83310   0.06340   0.93660   1.000
    C699    C    0.33150   0.53160   0.46840   1.000
    C700    C    0.33310   0.56340   0.43660   1.000
    C701    C    0.16850   0.96840   0.96840   1.000
    C702    C    0.16690   0.93660   0.93660   1.000
    C703    C    0.66850   0.46840   0.46840   1.000
    C704    C    0.66690   0.43660   0.43660   1.000
    C705    C    0.16850   0.03160   0.03160   1.000
    C706    C    0.16690   0.06340   0.06340   1.000
    C707    C    0.66850   0.53160   0.53160   1.000
    C708    C    0.66690   0.56340   0.56340   1.000
    C709    C    0.83150   0.96840   0.03160   1.000
    C710    C    0.83310   0.93660   0.06340   1.000
    C711    C    0.33150   0.46840   0.53160   1.000
    C712    C    0.33310   0.43660   0.56340   1.000
    C713    C    0.96840   0.83150   0.03160   1.000
    C714    C    0.93660   0.83310   0.06340   1.000
    C715    C    0.46840   0.33150   0.53160   1.000
    C716    C    0.43660   0.33310   0.56340   1.000
    C717    C    0.96840   0.16850   0.96840   1.000
    C718    C    0.93660   0.16690   0.93660   1.000
    C719    C    0.46840   0.66850   0.46840   1.000
    C720    C    0.43660   0.66690   0.43660   1.000
    C721    C    0.03160   0.16850   0.03160   1.000
    C722    C    0.06340   0.16690   0.06340   1.000
    C723    C    0.53160   0.66850   0.53160   1.000
    C724    C    0.56340   0.66690   0.56340   1.000
    C725    C    0.03160   0.83150   0.96840   1.000
    C726    C    0.06340   0.83310   0.93660   1.000
    C727    C    0.53160   0.33150   0.46840   1.000
    C728    C    0.56340   0.33310   0.43660   1.000
    C729    C    0.03160   0.96840   0.83150   1.000
    C730    C    0.06340   0.93660   0.83310   1.000
    C731    C    0.53160   0.46840   0.33150   1.000
    C732    C    0.56340   0.43660   0.33310   1.000
    C733    C    0.96840   0.96840   0.16850   1.000
    C734    C    0.93660   0.93660   0.16690   1.000
    C735    C    0.46840   0.46840   0.66850   1.000
    C736    C    0.43660   0.43660   0.66690   1.000
    C737    C    0.03160   0.03160   0.16850   1.000
    C738    C    0.06340   0.06340   0.16690   1.000
    C739    C    0.53160   0.53160   0.66850   1.000
    C740    C    0.56340   0.56340   0.66690   1.000
    C741    C    0.96840   0.03160   0.83150   1.000
    C742    C    0.93660   0.06340   0.83310   1.000
    C743    C    0.46840   0.53160   0.33150   1.000
    C744    C    0.43660   0.56340   0.33310   1.000
    C745    C    0.26800   0.73200   0.49090   1.000
    H529    H    0.24760   0.75240   0.48480   1.000
    C746    C    0.28710   0.71290   0.45950   1.000
    H530    H    0.28010   0.71990   0.43160   1.000
    C747    C    0.30630   0.69370   0.53900   1.000
    H531    H    0.31300   0.68700   0.56700   1.000
    C748    C    0.32590   0.67410   0.50760   1.000
    H532    H    0.34640   0.65360   0.51360   1.000
    C749    C    0.76800   0.23200   0.99090   1.000
    H533    H    0.74760   0.25240   0.98480   1.000
    C750    C    0.78710   0.21290   0.95950   1.000
    H534    H    0.78010   0.21990   0.93160   1.000
    C751    C    0.80630   0.19370   0.03900   1.000
    H535    H    0.81300   0.18700   0.06700   1.000
    C752    C    0.82590   0.17410   0.00760   1.000
    H536    H    0.84640   0.15360   0.01360   1.000
    C753    C    0.73200   0.26800   0.49090   1.000
    H537    H    0.75240   0.24760   0.48480   1.000
    C754    C    0.71290   0.28710   0.45950   1.000
    H538    H    0.71990   0.28010   0.43160   1.000
    C755    C    0.69370   0.30630   0.53900   1.000
    H539    H    0.68700   0.31300   0.56700   1.000
    C756    C    0.67410   0.32590   0.50760   1.000
    H540    H    0.65360   0.34640   0.51360   1.000
    C757    C    0.23200   0.76800   0.99090   1.000
    H541    H    0.25240   0.74760   0.98480   1.000
    C758    C    0.21290   0.78710   0.95950   1.000
    H542    H    0.21990   0.78010   0.93160   1.000
    C759    C    0.19370   0.80630   0.03900   1.000
    H543    H    0.18700   0.81300   0.06700   1.000
    C760    C    0.17410   0.82590   0.00760   1.000
    H544    H    0.15360   0.84640   0.01360   1.000
    C761    C    0.73200   0.73200   0.50910   1.000
    H545    H    0.75240   0.75240   0.51520   1.000
    C762    C    0.71290   0.71290   0.54050   1.000
    H546    H    0.71990   0.71990   0.56840   1.000
    C763    C    0.69370   0.69370   0.46100   1.000
    H547    H    0.68700   0.68700   0.43300   1.000
    C764    C    0.67410   0.67410   0.49240   1.000
    H548    H    0.65360   0.65360   0.48640   1.000
    C765    C    0.23200   0.23200   0.00910   1.000
    H549    H    0.25240   0.25240   0.01520   1.000
    C766    C    0.21290   0.21290   0.04050   1.000
    H550    H    0.21990   0.21990   0.06840   1.000
    C767    C    0.19370   0.19370   0.96100   1.000
    H551    H    0.18700   0.18700   0.93300   1.000
    C768    C    0.17410   0.17410   0.99240   1.000
    H552    H    0.15360   0.15360   0.98640   1.000
    C769    C    0.26800   0.26800   0.50910   1.000
    H553    H    0.24760   0.24760   0.51520   1.000
    C770    C    0.28710   0.28710   0.54050   1.000
    H554    H    0.28010   0.28010   0.56840   1.000
    C771    C    0.30630   0.30630   0.46100   1.000
    H555    H    0.31300   0.31300   0.43300   1.000
    C772    C    0.32590   0.32590   0.49240   1.000
    H556    H    0.34640   0.34640   0.48640   1.000
    C773    C    0.76800   0.76800   0.00910   1.000
    H557    H    0.74760   0.74760   0.01520   1.000
    C774    C    0.78710   0.78710   0.04050   1.000
    H558    H    0.78010   0.78010   0.06840   1.000
    C775    C    0.80630   0.80630   0.96100   1.000
    H559    H    0.81300   0.81300   0.93300   1.000
    C776    C    0.82590   0.82590   0.99240   1.000
    H560    H    0.84640   0.84640   0.98640   1.000
    C777    C    0.49090   0.26800   0.73200   1.000
    H561    H    0.48480   0.24760   0.75240   1.000
    C778    C    0.45950   0.28710   0.71290   1.000
    H562    H    0.43160   0.28010   0.71990   1.000
    C779    C    0.53900   0.30630   0.69370   1.000
    H563    H    0.56700   0.31300   0.68700   1.000
    C780    C    0.50760   0.32590   0.67410   1.000
    H564    H    0.51360   0.34640   0.65360   1.000
    C781    C    0.99090   0.76800   0.23200   1.000
    H565    H    0.98480   0.74760   0.25240   1.000
    C782    C    0.95950   0.78710   0.21290   1.000
    H566    H    0.93160   0.78010   0.21990   1.000
    C783    C    0.03900   0.80630   0.19370   1.000
    H567    H    0.06700   0.81300   0.18700   1.000
    C784    C    0.00760   0.82590   0.17410   1.000
    H568    H    0.01360   0.84640   0.15360   1.000
    C785    C    0.49090   0.73200   0.26800   1.000
    H569    H    0.48480   0.75240   0.24760   1.000
    C786    C    0.45950   0.71290   0.28710   1.000
    H570    H    0.43160   0.71990   0.28010   1.000
    C787    C    0.53900   0.69370   0.30630   1.000
    H571    H    0.56700   0.68700   0.31300   1.000
    C788    C    0.50760   0.67410   0.32590   1.000
    H572    H    0.51360   0.65360   0.34640   1.000
    C789    C    0.99090   0.23200   0.76800   1.000
    H573    H    0.98480   0.25240   0.74760   1.000
    C790    C    0.95950   0.21290   0.78710   1.000
    H574    H    0.93160   0.21990   0.78010   1.000
    C791    C    0.03900   0.19370   0.80630   1.000
    H575    H    0.06700   0.18700   0.81300   1.000
    C792    C    0.00760   0.17410   0.82590   1.000
    H576    H    0.01360   0.15360   0.84640   1.000
    C793    C    0.50910   0.73200   0.73200   1.000
    H577    H    0.51520   0.75240   0.75240   1.000
    C794    C    0.54050   0.71290   0.71290   1.000
    H578    H    0.56840   0.71990   0.71990   1.000
    C795    C    0.46100   0.69370   0.69370   1.000
    H579    H    0.43300   0.68700   0.68700   1.000
    C796    C    0.49240   0.67410   0.67410   1.000
    H580    H    0.48640   0.65360   0.65360   1.000
    C797    C    0.00910   0.23200   0.23200   1.000
    H581    H    0.01520   0.25240   0.25240   1.000
    C798    C    0.04050   0.21290   0.21290   1.000
    H582    H    0.06840   0.21990   0.21990   1.000
    C799    C    0.96100   0.19370   0.19370   1.000
    H583    H    0.93300   0.18700   0.18700   1.000
    C800    C    0.99240   0.17410   0.17410   1.000
    H584    H    0.98640   0.15360   0.15360   1.000
    C801    C    0.50910   0.26800   0.26800   1.000
    H585    H    0.51520   0.24760   0.24760   1.000
    C802    C    0.54050   0.28710   0.28710   1.000
    H586    H    0.56840   0.28010   0.28010   1.000
    C803    C    0.46100   0.30630   0.30630   1.000
    H587    H    0.43300   0.31300   0.31300   1.000
    C804    C    0.49240   0.32590   0.32590   1.000
    H588    H    0.48640   0.34640   0.34640   1.000
    C805    C    0.00910   0.76800   0.76800   1.000
    H589    H    0.01520   0.74760   0.74760   1.000
    C806    C    0.04050   0.78710   0.78710   1.000
    H590    H    0.06840   0.78010   0.78010   1.000
    C807    C    0.96100   0.80630   0.80630   1.000
    H591    H    0.93300   0.81300   0.81300   1.000
    C808    C    0.99240   0.82590   0.82590   1.000
    H592    H    0.98640   0.84640   0.84640   1.000
    C809    C    0.73200   0.49090   0.26800   1.000
    H593    H    0.75240   0.48480   0.24760   1.000
    C810    C    0.71290   0.45950   0.28710   1.000
    H594    H    0.71990   0.43160   0.28010   1.000
    C811    C    0.69370   0.53900   0.30630   1.000
    H595    H    0.68700   0.56700   0.31300   1.000
    C812    C    0.67410   0.50760   0.32590   1.000
    H596    H    0.65360   0.51360   0.34640   1.000
    C813    C    0.23200   0.99090   0.76800   1.000
    H597    H    0.25240   0.98480   0.74760   1.000
    C814    C    0.21290   0.95950   0.78710   1.000
    H598    H    0.21990   0.93160   0.78010   1.000
    C815    C    0.19370   0.03900   0.80630   1.000
    H599    H    0.18700   0.06700   0.81300   1.000
    C816    C    0.17410   0.00760   0.82590   1.000
    H600    H    0.15360   0.01360   0.84640   1.000
    C817    C    0.26800   0.49090   0.73200   1.000
    H601    H    0.24760   0.48480   0.75240   1.000
    C818    C    0.28710   0.45950   0.71290   1.000
    H602    H    0.28010   0.43160   0.71990   1.000
    C819    C    0.30630   0.53900   0.69370   1.000
    H603    H    0.31300   0.56700   0.68700   1.000
    C820    C    0.32590   0.50760   0.67410   1.000
    H604    H    0.34640   0.51360   0.65360   1.000
    C821    C    0.76800   0.99090   0.23200   1.000
    H605    H    0.74760   0.98480   0.25240   1.000
    C822    C    0.78710   0.95950   0.21290   1.000
    H606    H    0.78010   0.93160   0.21990   1.000
    C823    C    0.80630   0.03900   0.19370   1.000
    H607    H    0.81300   0.06700   0.18700   1.000
    C824    C    0.82590   0.00760   0.17410   1.000
    H608    H    0.84640   0.01360   0.15360   1.000
    C825    C    0.73200   0.50910   0.73200   1.000
    H609    H    0.75240   0.51520   0.75240   1.000
    C826    C    0.71290   0.54050   0.71290   1.000
    H610    H    0.71990   0.56840   0.71990   1.000
    C827    C    0.69370   0.46100   0.69370   1.000
    H611    H    0.68700   0.43300   0.68700   1.000
    C828    C    0.67410   0.49240   0.67410   1.000
    H612    H    0.65360   0.48640   0.65360   1.000
    C829    C    0.23200   0.00910   0.23200   1.000
    H613    H    0.25240   0.01520   0.25240   1.000
    C830    C    0.21290   0.04050   0.21290   1.000
    H614    H    0.21990   0.06840   0.21990   1.000
    C831    C    0.19370   0.96100   0.19370   1.000
    H615    H    0.18700   0.93300   0.18700   1.000
    C832    C    0.17410   0.99240   0.17410   1.000
    H616    H    0.15360   0.98640   0.15360   1.000
    C833    C    0.26800   0.50910   0.26800   1.000
    H617    H    0.24760   0.51520   0.24760   1.000
    C834    C    0.28710   0.54050   0.28710   1.000
    H618    H    0.28010   0.56840   0.28010   1.000
    C835    C    0.30630   0.46100   0.30630   1.000
    H619    H    0.31300   0.43300   0.31300   1.000
    C836    C    0.32590   0.49240   0.32590   1.000
    H620    H    0.34640   0.48640   0.34640   1.000
    C837    C    0.76800   0.00910   0.76800   1.000
    H621    H    0.74760   0.01520   0.74760   1.000
    C838    C    0.78710   0.04050   0.78710   1.000
    H622    H    0.78010   0.06840   0.78010   1.000
    C839    C    0.80630   0.96100   0.80630   1.000
    H623    H    0.81300   0.93300   0.81300   1.000
    C840    C    0.82590   0.99240   0.82590   1.000
    H624    H    0.84640   0.98640   0.84640   1.000
