# CIF file generated by openbabel 2.4.1, see http://openbabel.sf.net
data_I
_chemical_name_common 'image0'
_cell_length_a 33.1915
_cell_length_b 33.1915
_cell_length_c 13.3206
_cell_angle_alpha 90
_cell_angle_beta 90
_cell_angle_gamma 120
_space_group_name_H-M_alt 'P 1'
_space_group_name_Hall 'P 1'
loop_
    _symmetry_equiv_pos_as_xyz
    x,y,z
loop_
    _atom_site_label
    _atom_site_type_symbol
    _atom_site_fract_x
    _atom_site_fract_y
    _atom_site_fract_z
    _atom_site_occupancy
    Zn1     Zn   0.29912   0.00859   0.90947   1.000
    Zn2     Zn   0.44350   0.00477   0.02748   1.000
    Zn3     Zn   0.16482   0.83599   0.66855   1.000
    P1      P    0.33840   0.96454   0.06240   1.000
    P2      P    0.22916   0.90707   0.84351   1.000
    P3      P    0.48074   0.06899   0.21944   1.000
    P4      P    0.52155   0.05698   0.86760   1.000
    O1      O    0.30722   0.98357   0.03397   1.000
    O2      O    0.37775   0.97866   0.98953   1.000
    O3      O    0.35537   0.97623   0.17061   1.000
    O4      O    0.25026   0.95923   0.83309   1.000
    O5      O    0.19108   0.88413   0.76747   1.000
    O6      O    0.21334   0.89121   0.95007   1.000
    O7      O    0.46698   0.05930   0.10986   1.000
    O8      O    0.51088   0.04947   0.25457   1.000
    O9      O    0.43943   0.05510   0.28790   1.000
    O10     O    0.47146   0.02592   0.89545   1.000
    O11     O    0.52940   0.05716   0.75663   1.000
    O12     O    0.55447   0.04874   0.92840   1.000
    H1      H    0.30990   0.91070   0.05940   1.000
    H2      H    0.26520   0.89220   0.81990   1.000
    H3      H    0.50430   0.11090   0.22740   1.000
    H4      H    0.53130   0.09930   0.88120   1.000
    O13     O    0.30950   0.91270   0.06010   1.000
    O14     O    0.26630   0.89320   0.81970   1.000
    Zn4     Zn   0.96578   0.34192   0.24280   1.000
    Zn5     Zn   0.11017   0.33810   0.36081   1.000
    Zn6     Zn   0.83149   0.16932   0.00188   1.000
    P5      P    0.00507   0.29787   0.39573   1.000
    P6      P    0.89583   0.24040   0.17684   1.000
    P7      P    0.14741   0.40232   0.55277   1.000
    P8      P    0.18822   0.39031   0.20093   1.000
    O15     O    0.97389   0.31690   0.36730   1.000
    O16     O    0.04442   0.31199   0.32286   1.000
    O17     O    0.02204   0.30956   0.50394   1.000
    O18     O    0.91693   0.29256   0.16642   1.000
    O19     O    0.85775   0.21746   0.10080   1.000
    O20     O    0.88001   0.22454   0.28340   1.000
    O21     O    0.13365   0.39263   0.44319   1.000
    O22     O    0.17755   0.38280   0.58790   1.000
    O23     O    0.10610   0.38843   0.62123   1.000
    O24     O    0.13813   0.35925   0.22878   1.000
    O25     O    0.19607   0.39049   0.08996   1.000
    O26     O    0.22114   0.38207   0.26173   1.000
    H5      H    0.97657   0.24403   0.39273   1.000
    H6      H    0.93187   0.22553   0.15323   1.000
    H7      H    0.17097   0.44423   0.56073   1.000
    H8      H    0.19797   0.43263   0.21453   1.000
    O27     O    0.97617   0.24603   0.39343   1.000
    O28     O    0.93297   0.22653   0.15303   1.000
    Zn7     Zn   0.63245   0.67525   0.57614   1.000
    Zn8     Zn   0.77684   0.67143   0.69415   1.000
    Zn9     Zn   0.49816   0.50265   0.33522   1.000
    P9      P    0.67173   0.63121   0.72907   1.000
    P10     P    0.56249   0.57374   0.51018   1.000
    P11     P    0.81407   0.73566   0.88611   1.000
    P12     P    0.85488   0.72365   0.53427   1.000
    O29     O    0.64055   0.65024   0.70064   1.000
    O30     O    0.71108   0.64533   0.65620   1.000
    O31     O    0.68870   0.64290   0.83728   1.000
    O32     O    0.58359   0.62590   0.49976   1.000
    O33     O    0.52441   0.55080   0.43414   1.000
    O34     O    0.54667   0.55788   0.61674   1.000
    O35     O    0.80031   0.72597   0.77653   1.000
    O36     O    0.84421   0.71614   0.92124   1.000
    O37     O    0.77276   0.72177   0.95457   1.000
    O38     O    0.80479   0.69259   0.56212   1.000
    O39     O    0.86273   0.72383   0.42330   1.000
    O40     O    0.88780   0.71541   0.59507   1.000
    H9      H    0.64323   0.57737   0.72607   1.000
    H10     H    0.59853   0.55887   0.48657   1.000
    H11     H    0.83763   0.77757   0.89407   1.000
    H12     H    0.86463   0.76597   0.54787   1.000
    O41     O    0.64283   0.57937   0.72677   1.000
    O42     O    0.59963   0.55987   0.48637   1.000
    Zn10    Zn   0.99141   0.29053   0.90947   1.000
    Zn11    Zn   0.99523   0.43874   0.02748   1.000
    Zn12    Zn   0.16401   0.32884   0.66855   1.000
    P13     P    0.03546   0.37386   0.06240   1.000
    P14     P    0.09293   0.32209   0.84351   1.000
    P15     P    0.93101   0.41175   0.21944   1.000
    P16     P    0.94302   0.46457   0.86760   1.000
    O43     O    0.01643   0.32365   0.03397   1.000
    O44     O    0.02134   0.39909   0.98953   1.000
    O45     O    0.02377   0.37914   0.17061   1.000
    O46     O    0.04077   0.29103   0.83309   1.000
    O47     O    0.11587   0.30695   0.76747   1.000
    O48     O    0.10879   0.32213   0.95007   1.000
    O49     O    0.94070   0.40768   0.10986   1.000
    O50     O    0.95053   0.46141   0.25457   1.000
    O51     O    0.94490   0.38433   0.28790   1.000
    O52     O    0.97408   0.44554   0.89545   1.000
    O53     O    0.94284   0.47224   0.75663   1.000
    O54     O    0.95126   0.50573   0.92840   1.000
    H13     H    0.08930   0.39920   0.05940   1.000
    H14     H    0.10780   0.37300   0.81990   1.000
    H15     H    0.88910   0.39340   0.22740   1.000
    H16     H    0.90070   0.43200   0.88120   1.000
    O55     O    0.08730   0.39680   0.06010   1.000
    O56     O    0.10680   0.37310   0.81970   1.000
    Zn13    Zn   0.65808   0.62386   0.24280   1.000
    Zn14    Zn   0.66190   0.77207   0.36081   1.000
    Zn15    Zn   0.83068   0.66217   0.00188   1.000
    P17     P    0.70213   0.70719   0.39573   1.000
    P18     P    0.75960   0.65542   0.17684   1.000
    P19     P    0.59768   0.74508   0.55277   1.000
    P20     P    0.60969   0.79790   0.20093   1.000
    O57     O    0.68310   0.65698   0.36730   1.000
    O58     O    0.68801   0.73242   0.32286   1.000
    O59     O    0.69044   0.71247   0.50394   1.000
    O60     O    0.70744   0.62436   0.16642   1.000
    O61     O    0.78254   0.64028   0.10080   1.000
    O62     O    0.77546   0.65546   0.28340   1.000
    O63     O    0.60737   0.74101   0.44319   1.000
    O64     O    0.61720   0.79474   0.58790   1.000
    O65     O    0.61157   0.71766   0.62123   1.000
    O66     O    0.64075   0.77887   0.22878   1.000
    O67     O    0.60951   0.80557   0.08996   1.000
    O68     O    0.61793   0.83906   0.26173   1.000
    H17     H    0.75597   0.73253   0.39273   1.000
    H18     H    0.77447   0.70633   0.15323   1.000
    H19     H    0.55577   0.72673   0.56073   1.000
    H20     H    0.56737   0.76533   0.21453   1.000
    O69     O    0.75397   0.73013   0.39343   1.000
    O70     O    0.77347   0.70643   0.15303   1.000
    Zn16    Zn   0.32475   0.95720   0.57614   1.000
    Zn17    Zn   0.32857   0.10540   0.69415   1.000
    Zn18    Zn   0.49735   0.99551   0.33522   1.000
    P21     P    0.36879   0.04053   0.72907   1.000
    P22     P    0.42626   0.98876   0.51018   1.000
    P23     P    0.26434   0.07842   0.88611   1.000
    P24     P    0.27635   0.13124   0.53427   1.000
    O71     O    0.34976   0.99032   0.70064   1.000
    O72     O    0.35467   0.06576   0.65620   1.000
    O73     O    0.35710   0.04581   0.83728   1.000
    O74     O    0.37410   0.95770   0.49976   1.000
    O75     O    0.44920   0.97362   0.43414   1.000
    O76     O    0.44212   0.98880   0.61674   1.000
    O77     O    0.27403   0.07435   0.77653   1.000
    O78     O    0.28386   0.12808   0.92124   1.000
    O79     O    0.27823   0.05100   0.95457   1.000
    O80     O    0.30741   0.11221   0.56212   1.000
    O81     O    0.27617   0.13891   0.42330   1.000
    O82     O    0.28459   0.17240   0.59507   1.000
    H21     H    0.42263   0.06587   0.72607   1.000
    H22     H    0.44113   0.03967   0.48657   1.000
    H23     H    0.22243   0.06007   0.89407   1.000
    H24     H    0.23403   0.09867   0.54787   1.000
    O83     O    0.42063   0.06347   0.72677   1.000
    O84     O    0.44013   0.03977   0.48637   1.000
    Zn19    Zn   0.70947   0.70088   0.90947   1.000
    Zn20    Zn   0.56126   0.55650   0.02748   1.000
    Zn21    Zn   0.67116   0.83518   0.66855   1.000
    P25     P    0.62614   0.66160   0.06240   1.000
    P26     P    0.67791   0.77084   0.84351   1.000
    P27     P    0.58825   0.51926   0.21944   1.000
    P28     P    0.53543   0.47845   0.86760   1.000
    O85     O    0.67635   0.69278   0.03397   1.000
    O86     O    0.60091   0.62225   0.98953   1.000
    O87     O    0.62086   0.64463   0.17061   1.000
    O88     O    0.70897   0.74974   0.83309   1.000
    O89     O    0.69305   0.80892   0.76747   1.000
    O90     O    0.67787   0.78666   0.95007   1.000
    O91     O    0.59232   0.53302   0.10986   1.000
    O92     O    0.53859   0.48912   0.25457   1.000
    O93     O    0.61567   0.56057   0.28790   1.000
    O94     O    0.55446   0.52854   0.89545   1.000
    O95     O    0.52776   0.47060   0.75663   1.000
    O96     O    0.49427   0.44553   0.92840   1.000
    H25     H    0.60080   0.69010   0.05940   1.000
    H26     H    0.62700   0.73480   0.81990   1.000
    H27     H    0.60660   0.49570   0.22740   1.000
    H28     H    0.56800   0.46870   0.88120   1.000
    O97     O    0.60320   0.69050   0.06010   1.000
    O98     O    0.62690   0.73370   0.81970   1.000
    Zn22    Zn   0.37614   0.03422   0.24280   1.000
    Zn23    Zn   0.22793   0.88983   0.36081   1.000
    Zn24    Zn   0.33783   0.16851   0.00188   1.000
    P29     P    0.29281   0.99493   0.39573   1.000
    P30     P    0.34458   0.10417   0.17684   1.000
    P31     P    0.25492   0.85259   0.55277   1.000
    P32     P    0.20210   0.81178   0.20093   1.000
    O99     O    0.34302   0.02611   0.36730   1.000
    O100    O    0.26758   0.95558   0.32286   1.000
    O101    O    0.28753   0.97796   0.50394   1.000
    O102    O    0.37564   0.08307   0.16642   1.000
    O103    O    0.35972   0.14225   0.10080   1.000
    O104    O    0.34454   0.11999   0.28340   1.000
    O105    O    0.25899   0.86635   0.44319   1.000
    O106    O    0.20526   0.82245   0.58790   1.000
    O107    O    0.28234   0.89390   0.62123   1.000
    O108    O    0.22113   0.86187   0.22878   1.000
    O109    O    0.19443   0.80393   0.08996   1.000
    O110    O    0.16094   0.77886   0.26173   1.000
    H29     H    0.26747   0.02343   0.39273   1.000
    H30     H    0.29367   0.06813   0.15323   1.000
    H31     H    0.27327   0.82903   0.56073   1.000
    H32     H    0.23467   0.80203   0.21453   1.000
    O111    O    0.26987   0.02383   0.39343   1.000
    O112    O    0.29357   0.06703   0.15303   1.000
    Zn25    Zn   0.04280   0.36755   0.57614   1.000
    Zn26    Zn   0.89460   0.22316   0.69415   1.000
    Zn27    Zn   0.00449   0.50184   0.33522   1.000
    P33     P    0.95947   0.32827   0.72907   1.000
    P34     P    0.01124   0.43751   0.51018   1.000
    P35     P    0.92158   0.18593   0.88611   1.000
    P36     P    0.86876   0.14512   0.53427   1.000
    O113    O    0.00968   0.35945   0.70064   1.000
    O114    O    0.93424   0.28892   0.65620   1.000
    O115    O    0.95419   0.31130   0.83728   1.000
    O116    O    0.04230   0.41641   0.49976   1.000
    O117    O    0.02638   0.47559   0.43414   1.000
    O118    O    0.01120   0.45333   0.61674   1.000
    O119    O    0.92565   0.19969   0.77653   1.000
    O120    O    0.87192   0.15579   0.92124   1.000
    O121    O    0.94900   0.22724   0.95457   1.000
    O122    O    0.88779   0.19521   0.56212   1.000
    O123    O    0.86109   0.13727   0.42330   1.000
    O124    O    0.82760   0.11220   0.59507   1.000
    H33     H    0.93413   0.35677   0.72607   1.000
    H34     H    0.96033   0.40147   0.48657   1.000
    H35     H    0.93993   0.16237   0.89407   1.000
    H36     H    0.90133   0.13537   0.54787   1.000
    O125    O    0.93653   0.35717   0.72677   1.000
    O126    O    0.96023   0.40037   0.48637   1.000
    Zn28    Zn   0.70088   0.99141   0.09053   1.000
    Zn29    Zn   0.55650   0.99523   0.97252   1.000
    Zn30    Zn   0.83518   0.16401   0.33145   1.000
    P37     P    0.66160   0.03546   0.93760   1.000
    P38     P    0.77084   0.09293   0.15649   1.000
    P39     P    0.51926   0.93101   0.78056   1.000
    P40     P    0.47845   0.94302   0.13240   1.000
    O127    O    0.69278   0.01643   0.96603   1.000
    O128    O    0.62225   0.02134   0.01047   1.000
    O129    O    0.64463   0.02377   0.82939   1.000
    O130    O    0.74974   0.04077   0.16691   1.000
    O131    O    0.80892   0.11587   0.23253   1.000
    O132    O    0.78666   0.10879   0.04993   1.000
    O133    O    0.53302   0.94070   0.89014   1.000
    O134    O    0.48912   0.95053   0.74543   1.000
    O135    O    0.56057   0.94490   0.71210   1.000
    O136    O    0.52854   0.97408   0.10455   1.000
    O137    O    0.47060   0.94284   0.24337   1.000
    O138    O    0.44553   0.95126   0.07160   1.000
    H37     H    0.69010   0.08930   0.94060   1.000
    H38     H    0.73480   0.10780   0.18010   1.000
    H39     H    0.49570   0.88910   0.77260   1.000
    H40     H    0.46870   0.90070   0.11880   1.000
    O139    O    0.69050   0.08730   0.93990   1.000
    O140    O    0.73370   0.10680   0.18030   1.000
    Zn31    Zn   0.36755   0.32475   0.42386   1.000
    Zn32    Zn   0.22316   0.32857   0.30585   1.000
    Zn33    Zn   0.50184   0.49735   0.66478   1.000
    P41     P    0.32827   0.36879   0.27093   1.000
    P42     P    0.43751   0.42626   0.48982   1.000
    P43     P    0.18593   0.26434   0.11389   1.000
    P44     P    0.14512   0.27635   0.46573   1.000
    O141    O    0.35945   0.34976   0.29936   1.000
    O142    O    0.28892   0.35467   0.34380   1.000
    O143    O    0.31130   0.35710   0.16272   1.000
    O144    O    0.41641   0.37410   0.50024   1.000
    O145    O    0.47559   0.44920   0.56586   1.000
    O146    O    0.45333   0.44212   0.38326   1.000
    O147    O    0.19969   0.27403   0.22347   1.000
    O148    O    0.15579   0.28386   0.07876   1.000
    O149    O    0.22724   0.27823   0.04543   1.000
    O150    O    0.19521   0.30741   0.43788   1.000
    O151    O    0.13727   0.27617   0.57670   1.000
    O152    O    0.11220   0.28459   0.40493   1.000
    H41     H    0.35677   0.42263   0.27393   1.000
    H42     H    0.40147   0.44113   0.51343   1.000
    H43     H    0.16237   0.22243   0.10593   1.000
    H44     H    0.13537   0.23403   0.45213   1.000
    O153    O    0.35717   0.42063   0.27323   1.000
    O154    O    0.40037   0.44013   0.51363   1.000
    Zn34    Zn   0.03422   0.65808   0.75720   1.000
    Zn35    Zn   0.88983   0.66190   0.63919   1.000
    Zn36    Zn   0.16851   0.83068   0.99812   1.000
    P45     P    0.99493   0.70213   0.60427   1.000
    P46     P    0.10417   0.75960   0.82316   1.000
    P47     P    0.85259   0.59768   0.44723   1.000
    P48     P    0.81178   0.60969   0.79907   1.000
    O155    O    0.02611   0.68310   0.63270   1.000
    O156    O    0.95558   0.68801   0.67714   1.000
    O157    O    0.97796   0.69044   0.49606   1.000
    O158    O    0.08307   0.70744   0.83358   1.000
    O159    O    0.14225   0.78254   0.89920   1.000
    O160    O    0.11999   0.77546   0.71660   1.000
    O161    O    0.86635   0.60737   0.55681   1.000
    O162    O    0.82245   0.61720   0.41210   1.000
    O163    O    0.89390   0.61157   0.37877   1.000
    O164    O    0.86187   0.64075   0.77122   1.000
    O165    O    0.80393   0.60951   0.91004   1.000
    O166    O    0.77886   0.61793   0.73827   1.000
    H45     H    0.02343   0.75597   0.60727   1.000
    H46     H    0.06813   0.77447   0.84677   1.000
    H47     H    0.82903   0.55577   0.43927   1.000
    H48     H    0.80203   0.56737   0.78547   1.000
    O167    O    0.02383   0.75397   0.60657   1.000
    O168    O    0.06703   0.77347   0.84697   1.000
    Zn37    Zn   0.00859   0.70947   0.09053   1.000
    Zn38    Zn   0.00477   0.56126   0.97252   1.000
    Zn39    Zn   0.83599   0.67116   0.33145   1.000
    P49     P    0.96454   0.62614   0.93760   1.000
    P50     P    0.90707   0.67791   0.15649   1.000
    P51     P    0.06899   0.58825   0.78056   1.000
    P52     P    0.05698   0.53543   0.13240   1.000
    O169    O    0.98357   0.67635   0.96603   1.000
    O170    O    0.97866   0.60091   0.01047   1.000
    O171    O    0.97623   0.62086   0.82939   1.000
    O172    O    0.95923   0.70897   0.16691   1.000
    O173    O    0.88413   0.69305   0.23253   1.000
    O174    O    0.89121   0.67787   0.04993   1.000
    O175    O    0.05930   0.59232   0.89014   1.000
    O176    O    0.04947   0.53859   0.74543   1.000
    O177    O    0.05510   0.61567   0.71210   1.000
    O178    O    0.02592   0.55446   0.10455   1.000
    O179    O    0.05716   0.52776   0.24337   1.000
    O180    O    0.04874   0.49427   0.07160   1.000
    H49     H    0.91070   0.60080   0.94060   1.000
    H50     H    0.89220   0.62700   0.18010   1.000
    H51     H    0.11090   0.60660   0.77260   1.000
    H52     H    0.09930   0.56800   0.11880   1.000
    O181    O    0.91270   0.60320   0.93990   1.000
    O182    O    0.89320   0.62690   0.18030   1.000
    Zn40    Zn   0.67525   0.04280   0.42386   1.000
    Zn41    Zn   0.67143   0.89460   0.30585   1.000
    Zn42    Zn   0.50265   0.00449   0.66478   1.000
    P53     P    0.63121   0.95947   0.27093   1.000
    P54     P    0.57374   0.01124   0.48982   1.000
    P55     P    0.73566   0.92158   0.11389   1.000
    P56     P    0.72365   0.86876   0.46573   1.000
    O183    O    0.65024   0.00968   0.29936   1.000
    O184    O    0.64533   0.93424   0.34380   1.000
    O185    O    0.64290   0.95419   0.16272   1.000
    O186    O    0.62590   0.04230   0.50024   1.000
    O187    O    0.55080   0.02638   0.56586   1.000
    O188    O    0.55788   0.01120   0.38326   1.000
    O189    O    0.72597   0.92565   0.22347   1.000
    O190    O    0.71614   0.87192   0.07876   1.000
    O191    O    0.72177   0.94900   0.04543   1.000
    O192    O    0.69259   0.88779   0.43788   1.000
    O193    O    0.72383   0.86109   0.57670   1.000
    O194    O    0.71541   0.82760   0.40493   1.000
    H53     H    0.57737   0.93413   0.27393   1.000
    H54     H    0.55887   0.96033   0.51343   1.000
    H55     H    0.77757   0.93993   0.10593   1.000
    H56     H    0.76597   0.90133   0.45213   1.000
    O195    O    0.57937   0.93653   0.27323   1.000
    O196    O    0.55987   0.96023   0.51363   1.000
    Zn43    Zn   0.34192   0.37614   0.75720   1.000
    Zn44    Zn   0.33810   0.22793   0.63919   1.000
    Zn45    Zn   0.16932   0.33783   0.99812   1.000
    P57     P    0.29787   0.29281   0.60427   1.000
    P58     P    0.24040   0.34458   0.82316   1.000
    P59     P    0.40232   0.25492   0.44723   1.000
    P60     P    0.39031   0.20210   0.79907   1.000
    O197    O    0.31690   0.34302   0.63270   1.000
    O198    O    0.31199   0.26758   0.67714   1.000
    O199    O    0.30956   0.28753   0.49606   1.000
    O200    O    0.29256   0.37564   0.83358   1.000
    O201    O    0.21746   0.35972   0.89920   1.000
    O202    O    0.22454   0.34454   0.71660   1.000
    O203    O    0.39263   0.25899   0.55681   1.000
    O204    O    0.38280   0.20526   0.41210   1.000
    O205    O    0.38843   0.28234   0.37877   1.000
    O206    O    0.35925   0.22113   0.77122   1.000
    O207    O    0.39049   0.19443   0.91004   1.000
    O208    O    0.38207   0.16094   0.73827   1.000
    H57     H    0.24403   0.26747   0.60727   1.000
    H58     H    0.22553   0.29367   0.84677   1.000
    H59     H    0.44423   0.27327   0.43927   1.000
    H60     H    0.43263   0.23467   0.78547   1.000
    O209    O    0.24603   0.26987   0.60657   1.000
    O210    O    0.22653   0.29357   0.84697   1.000
    Zn46    Zn   0.29053   0.29912   0.09053   1.000
    Zn47    Zn   0.43874   0.44350   0.97252   1.000
    Zn48    Zn   0.32884   0.16482   0.33145   1.000
    P61     P    0.37386   0.33840   0.93760   1.000
    P62     P    0.32209   0.22916   0.15649   1.000
    P63     P    0.41175   0.48074   0.78056   1.000
    P64     P    0.46457   0.52155   0.13240   1.000
    O211    O    0.32365   0.30722   0.96603   1.000
    O212    O    0.39909   0.37775   0.01047   1.000
    O213    O    0.37914   0.35537   0.82939   1.000
    O214    O    0.29103   0.25026   0.16691   1.000
    O215    O    0.30695   0.19108   0.23253   1.000
    O216    O    0.32213   0.21334   0.04993   1.000
    O217    O    0.40768   0.46698   0.89014   1.000
    O218    O    0.46141   0.51088   0.74543   1.000
    O219    O    0.38433   0.43943   0.71210   1.000
    O220    O    0.44554   0.47146   0.10455   1.000
    O221    O    0.47224   0.52940   0.24337   1.000
    O222    O    0.50573   0.55447   0.07160   1.000
    H61     H    0.39920   0.30990   0.94060   1.000
    H62     H    0.37300   0.26520   0.18010   1.000
    H63     H    0.39340   0.50430   0.77260   1.000
    H64     H    0.43200   0.53130   0.11880   1.000
    O223    O    0.39680   0.30950   0.93990   1.000
    O224    O    0.37310   0.26630   0.18030   1.000
    Zn49    Zn   0.95720   0.63245   0.42386   1.000
    Zn50    Zn   0.10540   0.77684   0.30585   1.000
    Zn51    Zn   0.99551   0.49816   0.66478   1.000
    P65     P    0.04053   0.67173   0.27093   1.000
    P66     P    0.98876   0.56249   0.48982   1.000
    P67     P    0.07842   0.81407   0.11389   1.000
    P68     P    0.13124   0.85488   0.46573   1.000
    O225    O    0.99032   0.64055   0.29936   1.000
    O226    O    0.06576   0.71108   0.34380   1.000
    O227    O    0.04581   0.68870   0.16272   1.000
    O228    O    0.95770   0.58359   0.50024   1.000
    O229    O    0.97362   0.52441   0.56586   1.000
    O230    O    0.98880   0.54667   0.38326   1.000
    O231    O    0.07435   0.80031   0.22347   1.000
    O232    O    0.12808   0.84421   0.07876   1.000
    O233    O    0.05100   0.77276   0.04543   1.000
    O234    O    0.11221   0.80479   0.43788   1.000
    O235    O    0.13891   0.86273   0.57670   1.000
    O236    O    0.17240   0.88780   0.40493   1.000
    H65     H    0.06587   0.64323   0.27393   1.000
    H66     H    0.03967   0.59853   0.51343   1.000
    H67     H    0.06007   0.83763   0.10593   1.000
    H68     H    0.09867   0.86463   0.45213   1.000
    O237    O    0.06347   0.64283   0.27323   1.000
    O238    O    0.03977   0.59963   0.51363   1.000
    Zn52    Zn   0.62386   0.96578   0.75720   1.000
    Zn53    Zn   0.77207   0.11017   0.63919   1.000
    Zn54    Zn   0.66217   0.83149   0.99812   1.000
    P69     P    0.70719   0.00507   0.60427   1.000
    P70     P    0.65542   0.89583   0.82316   1.000
    P71     P    0.74508   0.14741   0.44723   1.000
    P72     P    0.79790   0.18822   0.79907   1.000
    O239    O    0.65698   0.97389   0.63270   1.000
    O240    O    0.73242   0.04442   0.67714   1.000
    O241    O    0.71247   0.02204   0.49606   1.000
    O242    O    0.62436   0.91693   0.83358   1.000
    O243    O    0.64028   0.85775   0.89920   1.000
    O244    O    0.65546   0.88001   0.71660   1.000
    O245    O    0.74101   0.13365   0.55681   1.000
    O246    O    0.79474   0.17755   0.41210   1.000
    O247    O    0.71766   0.10610   0.37877   1.000
    O248    O    0.77887   0.13813   0.77122   1.000
    O249    O    0.80557   0.19607   0.91004   1.000
    O250    O    0.83906   0.22114   0.73827   1.000
    H69     H    0.73253   0.97657   0.60727   1.000
    H70     H    0.70633   0.93187   0.84677   1.000
    H71     H    0.72673   0.17097   0.43927   1.000
    H72     H    0.76533   0.19797   0.78547   1.000
    O251    O    0.73013   0.97617   0.60657   1.000
    O252    O    0.70643   0.93297   0.84697   1.000
