data_functionalizedCrystal
_audit_creation_method	'EQeq! by Chris Wilmer'
_symmetry_space_group_name_H-M	'P1'
_symmetry_Int_Tables_number	1
_symmetry_cell_setting	triclinic
loop_
_symmetry_equiv_pos_as_xyz
  x,y,z
_cell_length_a	15.0937
_cell_length_b	17.328
_cell_length_c	17.328
_cell_angle_alpha	79.0656
_cell_angle_beta	64.1811
_cell_angle_gamma	64.1811
loop_
_atom_site_label
_atom_site_type_symbol
_atom_site_fract_x
_atom_site_fract_y
_atom_site_fract_z
_atom_site_charge
Mof_Zn	Zn	0.75	0	-0	1.229
Mof_Zn	Zn	0.25	0	-0	1.226
Mof_Si	Si	-0	0	-0	2.612
Mof_Si	Si	0.5	0	-0	2.931
Mof_H 	H 	0.9667	0.8509	0.9285	0.123
Mof_H 	H 	0.0468	0.7011	0.9237	-0.047
Mof_H 	H 	0.0584	0.5762	0.8768	0.135
Mof_H 	H 	0.7461	0.1491	0.0715	0.053
Mof_H 	H 	0.6716	0.2989	0.0763	0.075
Mof_H 	H 	0.5114	0.4238	0.1232	0.044
Mof_H 	H 	0.8952	0.0715	0.8509	0.076
Mof_H 	H 	0.9705	0.0763	0.7011	0.109
Mof_H 	H 	0.9352	0.1232	0.5762	-0.016
Mof_H 	H 	0.8176	0.9285	0.1491	0.059
Mof_H 	H 	0.7479	0.9237	0.2989	0.079
Mof_H 	H 	0.6346	0.8768	0.4238	0.039
Mof_H 	H 	0.7539	0.9285	0.8509	0.067
Mof_H 	H 	0.8284	0.9237	0.7011	0.099
Mof_H 	H 	0.9886	0.8768	0.5762	-0.012
Mof_H 	H 	0.5333	0.0715	0.1491	0.045
Mof_H 	H 	0.4532	0.0763	0.2989	0.067
Mof_H 	H 	0.4416	0.1232	0.4238	0.042
Mof_H 	H 	0.6824	0.8509	0.0715	0.093
Mof_H 	H 	0.7521	0.7011	0.0763	0.038
Mof_H 	H 	0.8654	0.5762	0.1232	0.148
Mof_H 	H 	0.6048	0.1491	0.9285	0.046
Mof_H 	H 	0.5295	0.2989	0.9237	0.07
Mof_H 	H 	0.5648	0.4238	0.8768	0.037
Mof_H 	H 	0.0333	0.1491	0.0715	-0.02
Mof_H 	H 	0.9532	0.2989	0.0763	0.229
Mof_H 	H 	0.9416	0.4238	0.1232	-0.053
Mof_H 	H 	0.2539	0.8509	0.9285	0.072
Mof_H 	H 	0.3284	0.7011	0.9237	0.07
Mof_H 	H 	0.4886	0.5762	0.8768	0.04
Mof_H 	H 	0.1048	0.9285	0.1491	0.046
Mof_H 	H 	0.0295	0.9237	0.2989	0.037
Mof_H 	H 	0.0648	0.8768	0.4238	0.089
Mof_H 	H 	0.1824	0.0715	0.8509	0.063
Mof_H 	H 	0.2521	0.0763	0.7011	0.064
Mof_H 	H 	0.3654	0.1232	0.5762	0.044
Mof_H 	H 	0.2461	0.0715	0.1491	0.052
Mof_H 	H 	0.1716	0.0763	0.2989	0.046
Mof_H 	H 	0.0114	0.1232	0.4238	0.106
Mof_H 	H 	0.4667	0.9285	0.8509	0.073
Mof_H 	H 	0.5468	0.9237	0.7011	0.077
Mof_H 	H 	0.5584	0.8768	0.5762	0.041
Mof_H 	H 	0.3176	0.1491	0.9285	0.023
Mof_H 	H 	0.2479	0.2989	0.9237	0.114
Mof_H 	H 	0.1346	0.4238	0.8768	-0.067
Mof_H 	H 	0.3952	0.8509	0.0715	0.077
Mof_H 	H 	0.4705	0.7011	0.0763	0.075
Mof_H 	H 	0.4352	0.5762	0.1232	0.046
Mof_C 	C 	0.9227	0.81989	0.95811	0.053
Mof_C 	C 	0.97187	0.73022	0.95524	0.221
Mof_C 	C 	0.0337	0.5459	0.9277	-0.287
Mof_C 	C 	0.7007	0.18011	0.04189	0.057
Mof_C 	C 	0.65733	0.26978	0.04476	-0.097
Mof_C 	C 	0.5073	0.4541	0.0723	-0.034
Mof_C 	C 	0.88081	0.04189	0.81989	0.091
Mof_C 	C 	0.92711	0.04476	0.73022	-0.137
Mof_C 	C 	0.9614	0.0723	0.5459	0.213
Mof_C 	C 	0.74259	0.95811	0.18011	0.17
Mof_C 	C 	0.70209	0.95524	0.26978	-0.003
Mof_C 	C 	0.5796	0.9277	0.4541	0.066
Mof_C 	C 	0.7993	0.95811	0.81989	0.18
Mof_C 	C 	0.84267	0.95524	0.73022	-0.062
Mof_C 	C 	0.9927	0.9277	0.5459	0.261
Mof_C 	C 	0.5773	0.04189	0.18011	0.057
Mof_C 	C 	0.52813	0.04476	0.26978	-0.1
Mof_C 	C 	0.4663	0.0723	0.4541	-0.035
Mof_C 	C 	0.75741	0.81989	0.04189	0.008
Mof_C 	C 	0.79791	0.73022	0.04476	0.016
Mof_C 	C 	0.9204	0.5459	0.0723	-0.311
Mof_C 	C 	0.61919	0.18011	0.95811	0.174
Mof_C 	C 	0.57289	0.26978	0.95524	-0.005
Mof_C 	C 	0.5386	0.4541	0.9277	0.067
Mof_C 	C 	0.0773	0.18011	0.04189	0.182
Mof_C 	C 	0.02813	0.26978	0.04476	-0.395
Mof_C 	C 	0.9663	0.4541	0.0723	0.325
Mof_C 	C 	0.2993	0.81989	0.95811	0.158
Mof_C 	C 	0.34267	0.73022	0.95524	-0.004
Mof_C 	C 	0.4927	0.5459	0.9277	0.058
Mof_C 	C 	0.11919	0.95811	0.18011	0.149
Mof_C 	C 	0.07289	0.95524	0.26978	0.049
Mof_C 	C 	0.0386	0.9277	0.4541	-0.14
Mof_C 	C 	0.25741	0.04189	0.81989	0.057
Mof_C 	C 	0.29791	0.04476	0.73022	-0.097
Mof_C 	C 	0.4204	0.0723	0.5459	-0.039
Mof_C 	C 	0.2007	0.04189	0.18011	0.026
Mof_C 	C 	0.15733	0.04476	0.26978	-0.054
Mof_C 	C 	0.0073	0.0723	0.4541	-0.287
Mof_C 	C 	0.4227	0.95811	0.81989	0.164
Mof_C 	C 	0.47187	0.95524	0.73022	-0.004
Mof_C 	C 	0.5337	0.9277	0.5459	0.06
Mof_C 	C 	0.24259	0.18011	0.95811	0.241
Mof_C 	C 	0.20209	0.26978	0.95524	-0.132
Mof_C 	C 	0.0796	0.4541	0.9277	0.348
Mof_C 	C 	0.38081	0.81989	0.04189	0.058
Mof_C 	C 	0.42711	0.73022	0.04476	-0.093
Mof_C 	C 	0.4614	0.5459	0.0723	-0.04
Mof_C 	C 	0.90731	0.68538	-0	-0.192
Mof_C 	C 	0.95514	0.58972	-0	0.235
Mof_C 	C 	0.59269	0.31462	-0	-0.026
Mof_C 	C 	0.54486	0.41028	-0	-0.095
Mof_C 	C 	0.90731	0	0.68538	0.074
Mof_C 	C 	0.95514	-2.95232e-23	0.58972	-0.233
Mof_C 	C 	0.59269	0	0.31462	-0.023
Mof_C 	C 	0.54486	0	0.41028	-0.093
Mof_C 	C 	0.09269	0.31462	-0	0.179
Mof_C 	C 	0.04486	0.41028	-0	-0.443
Mof_C 	C 	0.40731	0.68538	-0	-0.024
Mof_C 	C 	0.45514	0.58972	-0	-0.089
Mof_C 	C 	0.09269	0	0.31462	-0.121
Mof_C 	C 	0.04486	0	0.41028	0.053
Mof_C 	C 	0.40731	0	0.68538	-0.022
Mof_C 	C 	0.45514	-2.95232e-23	0.58972	-0.09
Mof_N 	N 	0.81787	0.86426	-0	-0.205
Mof_N 	N 	0.68213	0.13574	-0	-0.276
Mof_N 	N 	0.81787	0	0.86426	-0.242
Mof_N 	N 	0.68213	0	0.13574	-0.273
Mof_N 	N 	0.18213	0.13574	-0	-0.318
Mof_N 	N 	0.31787	0.86426	-0	-0.238
Mof_N 	N 	0.18213	0	0.13574	-0.274
Mof_N 	N 	0.31787	0	0.86426	-0.241
Mof_F 	F 	0.92723	0.05492	0.09062	-0.682
Mof_F 	F 	0.07277	0.94508	0.90938	-0.612
Mof_F 	F 	0.01785	0.90938	0.05492	-0.698
Mof_F 	F 	0.98215	0.09062	0.94508	-0.589
Mof_F 	F 	0.42723	0.09062	0.05492	-0.781
Mof_F 	F 	0.57277	0.90938	0.94508	-0.635
Mof_F 	F 	0.51785	0.05492	0.90938	-0.713
Mof_F 	F 	0.48215	0.94508	0.09062	-0.679
Mof_F 	F 	0.8866	0	-0	-0.853
Mof_F 	F 	0.6134	0	-0	-0.922
Mof_F 	F 	0.1134	0	-0	-0.899
Mof_F 	F 	0.3866	0	-0	-0.924
_end
