data_functionalizedCrystal
_audit_creation_method	'EQeq! by Chris Wilmer'
_symmetry_space_group_name_H-M	'P1'
_symmetry_Int_Tables_number	1
_symmetry_cell_setting	triclinic
loop_
_symmetry_equiv_pos_as_xyz
  x,y,z
_cell_length_a	8.0107
_cell_length_b	20.461
_cell_length_c	8.6435
_cell_angle_alpha	90
_cell_angle_beta	90.643
_cell_angle_gamma	90
loop_
_atom_site_label
_atom_site_type_symbol
_atom_site_fract_x
_atom_site_fract_y
_atom_site_fract_z
_atom_site_charge
Mof_N 	N 	0.3736	0.0749	0.093	-0.194
Mof_N 	N 	0.2005	0.07854	0.0948	-0.108
Mof_N 	N 	0.3095	0.1683	0.1893	-0.103
Mof_N 	N 	0.3422	0.23176	0.2431	-0.04
Mof_N 	N 	0.174	0.42163	0.3776	-0.153
Mof_N 	N 	0.3471	0.41474	0.3964	-0.09
Mof_N 	N 	0.2422	0.32501	0.298	-0.101
Mof_N 	N 	0.2101	0.26208	0.2449	-0.045
Mof_C 	C 	0.4361	0.12831	0.1511	0.102
Mof_H 	H 	0.5516	0.1376	0.1644	0.01
Mof_C 	C 	0.1648	0.13576	0.152	0.094
Mof_H 	H 	0.0552	0.1524	0.1658	0.012
Mof_C 	C 	0.1159	0.368	0.3181	0.094
Mof_H 	H 	0.002	0.3601	0.2924	0.002
Mof_C 	C 	0.3844	0.35637	0.3481	0.096
Mof_H 	H 	0.4935	0.3382	0.3476	0.029
Mof_C 	C 	0.1844	0.99982	0.7908	0.111
Mof_H 	H 	0.1028	0.0036	0.8692	0.021
Mof_N 	N 	0.3457	0.99987	0.8119	-0.175
Mof_N 	N 	0.4222	0.9942	0.6686	-0.049
Mof_C 	C 	0.3037	0.9919	0.5647	0.082
Mof_H 	H 	0.3197	0.9896	0.4561	0.212
Mof_N 	N 	0.1533	0.9934	0.6357	-0.058
Mof_N 	N 	0.9946	0.9986	0.5717	-0.019
Mof_H 	H 	0.1029	0.9956	0.8691	-0.002
Mof_N 	N 	0.4222	0.0056	0.6685	-0.034
Mof_C 	C 	0.3036	0.008	0.5648	-0.013
Mof_H 	H 	0.3196	0.0103	0.4562	-0.168
Mof_N 	N 	0.1532	0.0069	0.6359	-0.039
Mof_N 	N 	0.9944	0.0018	0.5719	0.006
Mof_N 	N 	0.6264	0.9251	0.907	-0.174
Mof_N 	N 	0.7995	0.92146	0.9052	-0.077
Mof_N 	N 	0.6905	0.8317	0.8107	-0.098
Mof_N 	N 	0.6578	0.76824	0.7569	-0.035
Mof_N 	N 	0.826	0.57837	0.6224	-0.14
Mof_N 	N 	0.6529	0.58526	0.6036	-0.089
Mof_N 	N 	0.7578	0.67499	0.702	-0.095
Mof_N 	N 	0.7899	0.73792	0.7551	-0.029
Mof_C 	C 	0.5639	0.87169	0.8489	0.111
Mof_H 	H 	0.4484	0.8624	0.8356	0.016
Mof_C 	C 	0.8352	0.86424	0.848	0.107
Mof_H 	H 	0.9448	0.8476	0.8342	0.045
Mof_C 	C 	0.8841	0.632	0.6819	0.105
Mof_H 	H 	0.998	0.6399	0.7076	0.034
Mof_C 	C 	0.6156	0.64363	0.6519	0.103
Mof_H 	H 	0.5065	0.6618	0.6524	0.029
Mof_C 	C 	0.8156	0.00018	0.2092	0.096
Mof_H 	H 	0.8972	0.9964	0.1308	-0.004
Mof_N 	N 	0.6543	0.00013	0.1881	-0.192
Mof_N 	N 	0.5778	0.0058	0.3314	-0.033
Mof_C 	C 	0.6963	0.0081	0.4353	-0.011
Mof_H 	H 	0.6803	0.0104	0.5439	-0.167
Mof_N 	N 	0.8467	0.0066	0.3643	-0.023
Mof_N 	N 	0.0054	0.0014	0.4283	-0.016
Mof_H 	H 	0.8971	0.0044	0.1309	0.029
Mof_N 	N 	0.5778	0.9944	0.3315	-0.049
Mof_C 	C 	0.6964	0.992	0.4352	0.081
Mof_H 	H 	0.6804	0.9897	0.5438	0.215
Mof_N 	N 	0.8468	0.9931	0.3641	-0.049
Mof_N 	N 	0.0056	0.9982	0.4281	-0.042
Mof_Cu	Cu	0.5	0	-0	0.869
Mof_N 	N 	0.1264	0.5749	0.407	-0.182
Mof_N 	N 	0.2995	0.57854	0.4052	-0.093
Mof_N 	N 	0.1905	0.6683	0.3107	-0.093
Mof_N 	N 	0.1578	0.73176	0.2569	-0.049
Mof_N 	N 	0.326	0.92163	0.1224	-0.154
Mof_N 	N 	0.1529	0.91474	0.1036	-0.103
Mof_N 	N 	0.2578	0.82501	0.202	-0.102
Mof_N 	N 	0.2899	0.76208	0.2551	-0.042
Mof_C 	C 	0.0639	0.62831	0.3489	0.038
Mof_H 	H 	0.9484	0.6376	0.3356	0.054
Mof_C 	C 	0.3352	0.63576	0.348	0.096
Mof_H 	H 	0.4448	0.6524	0.3342	0.027
Mof_C 	C 	0.3841	0.868	0.1819	0.089
Mof_H 	H 	0.498	0.8601	0.2076	0.014
Mof_C 	C 	0.1156	0.85637	0.1519	0.088
Mof_H 	H 	0.0065	0.8382	0.1524	0.011
Mof_C 	C 	0.3156	0.49982	0.7092	0.105
Mof_H 	H 	0.3972	0.5036	0.6308	0.01
Mof_N 	N 	0.1543	0.49987	0.6881	-0.191
Mof_N 	N 	0.0778	0.4942	0.8314	-0.049
Mof_C 	C 	0.1963	0.4919	0.9353	0.061
Mof_H 	H 	0.1803	0.4896	0.0439	0.006
Mof_N 	N 	0.3467	0.4934	0.8643	-0.044
Mof_N 	N 	0.5054	0.4986	0.9283	-0.009
Mof_H 	H 	0.3971	0.4956	0.6309	0.011
Mof_N 	N 	0.0778	0.5056	0.8315	-0.048
Mof_C 	C 	0.1964	0.508	0.9352	0.058
Mof_H 	H 	0.1804	0.5103	0.0438	-0.005
Mof_N 	N 	0.3468	0.5069	0.8641	-0.044
Mof_N 	N 	0.5056	0.5018	0.9281	-0.008
Mof_N 	N 	0.8736	0.4251	0.593	-0.187
Mof_N 	N 	0.7005	0.42146	0.5948	-0.09
Mof_N 	N 	0.8095	0.3317	0.6893	-0.106
Mof_N 	N 	0.8422	0.26824	0.7431	-0.025
Mof_N 	N 	0.674	0.07837	0.8776	-0.138
Mof_N 	N 	0.8471	0.08526	0.8964	-0.074
Mof_N 	N 	0.7422	0.17499	0.798	-0.095
Mof_N 	N 	0.7101	0.23792	0.7449	-0.032
Mof_C 	C 	0.9361	0.37169	0.6511	0.175
Mof_H 	H 	0.0516	0.3624	0.6644	-0.028
Mof_C 	C 	0.6648	0.36424	0.652	0.105
Mof_H 	H 	0.5552	0.3476	0.6658	0.03
Mof_C 	C 	0.6159	0.132	0.8181	0.111
Mof_H 	H 	0.502	0.1399	0.7924	0.022
Mof_C 	C 	0.8844	0.14363	0.8481	0.11
Mof_H 	H 	0.9935	0.1618	0.8476	0.048
Mof_C 	C 	0.6844	0.50018	0.2908	0.103
Mof_H 	H 	0.6028	0.4964	0.3692	0.01
Mof_N 	N 	0.8457	0.50013	0.3119	-0.177
Mof_N 	N 	0.9222	0.5058	0.1686	-0.035
Mof_C 	C 	0.8037	0.5081	0.0647	0.007
Mof_H 	H 	0.8197	0.5104	0.9561	0.039
Mof_N 	N 	0.6533	0.5066	0.1357	-0.041
Mof_N 	N 	0.4946	0.5014	0.0717	-0.027
Mof_H 	H 	0.6029	0.5044	0.3691	0.012
Mof_N 	N 	0.9222	0.4944	0.1685	-0.034
Mof_C 	C 	0.8036	0.492	0.0648	0.01
Mof_H 	H 	0.8196	0.4897	0.9562	0.053
Mof_N 	N 	0.6532	0.4931	0.1359	-0.042
Mof_N 	N 	0.4944	0.4982	0.0719	-0.027
Mof_Cu	Cu	2.04549e-33	0.5	0.5	0.874
_end
