data_functionalizedCrystal
_audit_creation_method	'EQeq! by Chris Wilmer'
_symmetry_space_group_name_H-M	'P1'
_symmetry_Int_Tables_number	1
_symmetry_cell_setting	triclinic
loop_
_symmetry_equiv_pos_as_xyz
  x,y,z
_cell_length_a	16.6608
_cell_length_b	16.6608
_cell_length_c	17.4287
_cell_angle_alpha	118.553
_cell_angle_beta	118.553
_cell_angle_gamma	90.0001
loop_
_atom_site_label
_atom_site_type_symbol
_atom_site_fract_x
_atom_site_fract_y
_atom_site_fract_z
_atom_site_charge
Mof_Mn	Mn	-0	0	-0	0.772
Mof_Zn	Zn	0.55633	0.55633	0.11266	1.217
Mof_Zn	Zn	0.44367	0.44367	0.88734	1.222
Mof_H 	H 	0.922	0.7642	0.619	0.032
Mof_H 	H 	0.697	0.7642	0.619	0.03
Mof_H 	H 	0.5377	0.5919	0.2874	0.015
Mof_H 	H 	0.2358	0.078	0.381	0.026
Mof_H 	H 	0.1452	0.078	0.381	0.026
Mof_H 	H 	0.7013	0.0739	-0	0.056
Mof_H 	H 	0.208	0.052	0.1992	0.014
Mof_H 	H 	0.2152	0.3763	0.535	0.027
Mof_H 	H 	0.0088	0.8528	0.8008	0.021
Mof_H 	H 	0.2959	0.8585	0.1544	0.091
Mof_H 	H 	0.697	0.8548	0.619	0.029
Mof_H 	H 	0.4081	0.2503	0.7126	0.015
Mof_H 	H 	0.6237	0.6802	0.465	0.027
Mof_H 	H 	0.7041	0.7041	0.8456	0.088
Mof_H 	H 	0.3763	0.2152	0.535	0.027
Mof_H 	H 	0.4623	0.4081	0.7126	0.016
Mof_H 	H 	0.7642	0.697	0.619	0.029
Mof_H 	H 	0.7041	0.1415	0.8456	0.087
Mof_H 	H 	0.3954	0.7612	0.1566	0.001
Mof_H 	H 	0.6802	0.8413	0.465	0.027
Mof_H 	H 	0.3045	0.4623	0.7126	0.016
Mof_H 	H 	0.8528	0.792	0.8008	0.025
Mof_H 	H 	0.792	0.948	0.8008	0.024
Mof_H 	H 	0.2388	0.2388	0.8434	-0.004
Mof_H 	H 	0.2388	0.6046	0.8434	-0.004
Mof_H 	H 	0.2503	0.4081	0.7126	0.015
Mof_H 	H 	0.3198	0.3763	0.535	0.027
Mof_H 	H 	0.303	0.1452	0.381	0.028
Mof_H 	H 	0.8585	0.8585	0.1544	0.092
Mof_H 	H 	0.7497	0.5919	0.2874	0.014
Mof_H 	H 	0.8528	0.0088	0.8008	0.021
Mof_H 	H 	0.0088	0.948	0.8008	0.021
Mof_H 	H 	0.9261	0.2987	-0	0.051
Mof_H 	H 	0.2503	0.3045	0.7126	0.015
Mof_H 	H 	0.6955	0.5377	0.2874	0.014
Mof_H 	H 	0.8413	0.7848	0.465	0.028
Mof_H 	H 	0.7848	0.8413	0.465	0.028
Mof_H 	H 	0.0739	0.2987	-0	0.056
Mof_H 	H 	0.9912	0.1472	0.1992	0.018
Mof_H 	H 	0.2358	0.303	0.381	0.028
Mof_H 	H 	0.792	0.8528	0.8008	0.025
Mof_H 	H 	0.6046	0.6046	0.8434	-0.004
Mof_H 	H 	0.7612	0.7612	0.1566	0.001
Mof_H 	H 	0.3954	0.3954	0.1566	0
Mof_H 	H 	0.7848	0.6237	0.465	0.027
Mof_H 	H 	0.5919	0.5377	0.2874	0.014
Mof_H 	H 	0.1415	0.7041	0.8456	0.087
Mof_H 	H 	0.6237	0.7848	0.465	0.027
Mof_H 	H 	0.6802	0.6237	0.465	0.027
Mof_H 	H 	0.7642	0.922	0.619	0.031
Mof_H 	H 	0.0739	0.7013	-0	0.056
Mof_H 	H 	0.3198	0.1587	0.535	0.026
Mof_H 	H 	0.5377	0.6955	0.2874	0.014
Mof_H 	H 	0.7013	0.9261	-0	0.052
Mof_H 	H 	0.9261	0.7013	-0	0.052
Mof_H 	H 	0.2152	0.1587	0.535	0.026
Mof_H 	H 	0.3763	0.3198	0.535	0.027
Mof_H 	H 	0.1452	0.303	0.381	0.028
Mof_H 	H 	0.3045	0.2503	0.7126	0.015
Mof_H 	H 	0.1587	0.2152	0.535	0.026
Mof_H 	H 	0.052	0.9912	0.1992	0.019
Mof_H 	H 	0.948	0.792	0.8008	0.024
Mof_H 	H 	0.2959	0.2959	0.1544	0.09
Mof_H 	H 	0.1587	0.3198	0.535	0.026
Mof_H 	H 	0.8413	0.6802	0.465	0.027
Mof_H 	H 	0.6955	0.7497	0.2874	0.014
Mof_H 	H 	0.922	0.8548	0.619	0.031
Mof_H 	H 	0.078	0.1452	0.381	0.026
Mof_H 	H 	0.1415	0.1415	0.8456	0.086
Mof_H 	H 	0.9912	0.052	0.1992	0.019
Mof_H 	H 	0.4081	0.4623	0.7126	0.016
Mof_H 	H 	0.078	0.2358	0.381	0.026
Mof_H 	H 	0.8548	0.922	0.619	0.031
Mof_H 	H 	0.5919	0.7497	0.2874	0.014
Mof_H 	H 	0.8548	0.697	0.619	0.029
Mof_H 	H 	0.1472	0.9912	0.1992	0.018
Mof_H 	H 	0.7497	0.6955	0.2874	0.014
Mof_H 	H 	0.7612	0.3954	0.1566	0.001
Mof_H 	H 	0.6046	0.2388	0.8434	-0.004
Mof_H 	H 	0.052	0.208	0.1992	0.014
Mof_H 	H 	0.2987	0.9261	-0	0.051
Mof_H 	H 	0.948	0.0088	0.8008	0.021
Mof_H 	H 	0.2987	0.0739	-0	0.056
Mof_H 	H 	0.8585	0.2959	0.1544	0.091
Mof_H 	H 	0.1472	0.208	0.1992	0.013
Mof_H 	H 	0.303	0.2358	0.381	0.028
Mof_H 	H 	0.4623	0.3045	0.7126	0.016
Mof_H 	H 	0.208	0.1472	0.1992	0.013
Mof_C 	C 	0.855	0.7615	0.6556	-0.036
Mof_C 	C 	0.3158	0.3487	0.5702	-0.032
Mof_C 	C 	0.3487	0.2544	0.5702	-0.032
Mof_C 	C 	0.6322	0.6005	0.3244	0.007
Mof_C 	C 	0.8941	0.855	0.6556	-0.037
Mof_C 	C 	0.1059	0.1994	0.3444	-0.035
Mof_C 	C 	0.7615	0.8006	0.6556	-0.037
Mof_C 	C 	0.909	0.9452	0.7634	0.011
Mof_C 	C 	0.1465	0.8535	-0	-0.145
Mof_C 	C 	0.7456	0.6513	0.4298	-0.032
Mof_C 	C 	0.9341	0.1708	-0	0.102
Mof_C 	C 	0.0659	0.8292	-0	0.102
Mof_C 	C 	0.6513	0.7456	0.4298	-0.032
Mof_C 	C 	0.1818	0.1456	0.2366	0.011
Mof_C 	C 	0.7161	0.1937	0.9098	-0.151
Mof_C 	C 	0.3278	0.6722	-0	-0.225
Mof_C 	C 	0.2215	0.3158	0.5702	-0.032
Mof_C 	C 	0.2385	0.145	0.3444	-0.039
Mof_C 	C 	0.198	0.198	0.396	0.049
Mof_C 	C 	0.8182	0.909	0.7634	0.011
Mof_C 	C 	0.7908	0.7908	-0	0.112
Mof_C 	C 	0.3078	0.3995	0.6756	0.007
Mof_C 	C 	0.2215	0.2544	0.5702	-0.032
Mof_C 	C 	0.1059	0.145	0.3444	-0.036
Mof_C 	C 	0.802	0.802	0.604	0.049
Mof_C 	C 	0.8535	0.8535	-0	-0.143
Mof_C 	C 	0.7908	0.2092	-0	0.112
Mof_C 	C 	0.3995	0.3678	0.6756	0.007
Mof_C 	C 	0.2568	0.2568	0.5136	0.027
Mof_C 	C 	0.2839	0.2839	0.0902	-0.19
Mof_C 	C 	0.6922	0.7239	0.3244	0.007
Mof_C 	C 	0.7473	0.9598	-0	-0.079
Mof_C 	C 	0.8006	0.7615	0.6556	-0.037
Mof_C 	C 	0.8544	0.8182	0.7634	0.004
Mof_C 	C 	0.7615	0.855	0.6556	-0.036
Mof_C 	C 	0.3158	0.2215	0.5702	-0.032
Mof_C 	C 	0.1708	0.0659	-0	0.103
Mof_C 	C 	0.7484	0.3434	0.0918	0.116
Mof_C 	C 	0.0548	0.091	0.2366	0
Mof_C 	C 	0.2092	0.7908	-0	0.112
Mof_C 	C 	0.8063	0.2839	0.0902	-0.189
Mof_C 	C 	0.1994	0.1059	0.3444	-0.035
Mof_C 	C 	0.9452	0.8544	0.7634	0.005
Mof_C 	C 	0.9452	0.909	0.7634	0.011
Mof_C 	C 	0.3995	0.3078	0.6756	0.007
Mof_C 	C 	0.7239	0.6322	0.3244	0.007
Mof_C 	C 	0.1937	0.7161	0.9098	-0.151
Mof_C 	C 	0.6087	0.3913	-0	0.423
Mof_C 	C 	0.1937	0.1937	0.9098	-0.151
Mof_C 	C 	0.3434	0.3434	0.0918	0.116
Mof_C 	C 	0.145	0.2385	0.3444	-0.039
Mof_C 	C 	0.6722	0.3278	-0	-0.225
Mof_C 	C 	0.2544	0.3487	0.5702	-0.032
Mof_C 	C 	0.7456	0.7785	0.4298	-0.032
Mof_C 	C 	0.6922	0.6005	0.3244	0.007
Mof_C 	C 	0.3913	0.6087	-0	0.423
Mof_C 	C 	0.9598	0.2527	-0	-0.077
Mof_C 	C 	0.9598	0.7473	-0	-0.079
Mof_C 	C 	0.091	0.0548	0.2366	0
Mof_C 	C 	0.6722	0.6722	-0	-0.225
Mof_C 	C 	0.1456	0.1818	0.2366	0.011
Mof_C 	C 	0.3678	0.2761	0.6756	0.007
Mof_C 	C 	0.9341	0.8292	-0	0.101
Mof_C 	C 	0.8182	0.8544	0.7634	0.004
Mof_C 	C 	0.1994	0.2385	0.3444	-0.037
Mof_C 	C 	0.1818	0.091	0.2366	0.003
Mof_C 	C 	0.8063	0.8063	0.0902	-0.189
Mof_C 	C 	0.7785	0.6842	0.4298	-0.032
Mof_C 	C 	0.8292	0.0659	-0	0.102
Mof_C 	C 	0.8006	0.8941	0.6556	-0.039
Mof_C 	C 	0.7432	0.7432	0.4864	0.028
Mof_C 	C 	0.2544	0.2215	0.5702	-0.032
Mof_C 	C 	0.1456	0.0548	0.2366	0.01
Mof_C 	C 	0.3487	0.3158	0.5702	-0.032
Mof_C 	C 	0.2527	0.9598	-0	-0.077
Mof_C 	C 	0.8941	0.8006	0.6556	-0.039
Mof_C 	C 	0.2092	0.2092	-0	0.112
Mof_C 	C 	0.1708	0.9341	-0	0.102
Mof_C 	C 	0.8544	0.9452	0.7634	0.005
Mof_C 	C 	0.0402	0.7473	-0	-0.097
Mof_C 	C 	0.909	0.8182	0.7634	0.011
Mof_C 	C 	0.0548	0.1456	0.2366	0.01
Mof_C 	C 	0.6005	0.6922	0.3244	0.007
Mof_C 	C 	0.0402	0.2527	-0	-0.1
Mof_C 	C 	0.8535	0.1465	-0	-0.145
Mof_C 	C 	0.145	0.1059	0.3444	-0.036
Mof_C 	C 	0.7161	0.7161	0.9098	-0.151
Mof_C 	C 	0.7484	0.7484	0.0918	0.116
Mof_C 	C 	0.2516	0.2516	0.9082	0.152
Mof_C 	C 	0.6513	0.6842	0.4298	-0.032
Mof_C 	C 	0.7473	0.0402	-0	-0.097
Mof_C 	C 	0.2516	0.6566	0.9082	0.152
Mof_C 	C 	0.6005	0.6322	0.3244	0.007
Mof_C 	C 	0.2761	0.3078	0.6756	0.007
Mof_C 	C 	0.6566	0.6566	0.9082	0.152
Mof_C 	C 	0.6842	0.6513	0.4298	-0.032
Mof_C 	C 	0.6322	0.7239	0.3244	0.007
Mof_C 	C 	0.2839	0.8063	0.0902	-0.189
Mof_C 	C 	0.3078	0.2761	0.6756	0.007
Mof_C 	C 	0.6087	0.6087	-0	0.423
Mof_C 	C 	0.1465	0.1465	-0	-0.147
Mof_C 	C 	0.3678	0.3995	0.6756	0.007
Mof_C 	C 	0.3913	0.3913	-0	0.423
Mof_C 	C 	0.091	0.1818	0.2366	0.003
Mof_C 	C 	0.7239	0.6922	0.3244	0.007
Mof_C 	C 	0.7785	0.7456	0.4298	-0.032
Mof_C 	C 	0.0659	0.1708	-0	0.103
Mof_C 	C 	0.6842	0.7785	0.4298	-0.032
Mof_C 	C 	0.8292	0.9341	-0	0.101
Mof_C 	C 	0.3278	0.3278	-0	-0.226
Mof_C 	C 	0.3434	0.7484	0.0918	0.116
Mof_C 	C 	0.2385	0.1994	0.3444	-0.037
Mof_C 	C 	0.2527	0.0402	-0	-0.1
Mof_C 	C 	0.2761	0.3678	0.6756	0.007
Mof_C 	C 	0.6566	0.2516	0.9082	0.152
Mof_C 	C 	0.855	0.8941	0.6556	-0.037
Mof_N 	N 	0.9087	0.9087	0.8174	-0.163
Mof_N 	N 	0.365	0.365	0.73	-0.241
Mof_N 	N 	-2.43282e-22	0.8792	-0	-0.23
Mof_N 	N 	0.635	0.635	0.27	-0.242
Mof_N 	N 	0.0913	0.0913	0.1826	-0.173
Mof_N 	N 	0.1208	0	-0	-0.232
Mof_N 	N 	-3.04102e-23	0.1208	-0	-0.232
Mof_N 	N 	0.8792	0	-0	-0.23
Mof_O 	O 	0.62676	0.62676	0.08466	-0.489
Mof_O 	O 	0.37324	0.5421	0.91534	-0.457
Mof_O 	O 	0.4579	0.4579	0.08466	-0.489
Mof_O 	O 	0.4579	0.62676	0.08466	-0.489
Mof_O 	O 	0.5421	0.5421	0.91534	-0.456
Mof_O 	O 	0.5421	0.37324	0.91534	-0.457
Mof_O 	O 	0.37324	0.37324	0.91534	-0.457
Mof_O 	O 	0.62676	0.4579	0.08466	-0.489
_end
