# CIF file generated by openbabel 2.4.1, see http://openbabel.sf.net
data_I
_chemical_name_common 'image0'
_cell_length_a 33.0028
_cell_length_b 33.0028
_cell_length_c 33.4823
_cell_angle_alpha 90
_cell_angle_beta 90
_cell_angle_gamma 90
_space_group_name_H-M_alt 'P 1'
_space_group_name_Hall 'P 1'
loop_
    _symmetry_equiv_pos_as_xyz
    x,y,z
loop_
    _atom_site_label
    _atom_site_type_symbol
    _atom_site_fract_x
    _atom_site_fract_y
    _atom_site_fract_z
    _atom_site_occupancy
    O1      O    0.32349   0.04138   0.45857   1.000
    O2      O    0.25557   0.04112   0.45896   1.000
    C1      C    0.28943   0.05262   0.44593   1.000
    C2      C    0.28918   0.08122   0.41180   1.000
    C3      C    0.32484   0.09521   0.39524   1.000
    H1      H    0.35000   0.08650   0.40600   1.000
    C4      C    0.32429   0.12162   0.36329   1.000
    H2      H    0.34910   0.13070   0.35200   1.000
    C5      C    0.28782   0.13510   0.34744   1.000
    C6      C    0.25215   0.12105   0.36444   1.000
    H3      H    0.22690   0.13010   0.35400   1.000
    C7      C    0.25243   0.09440   0.39600   1.000
    H4      H    0.22760   0.08500   0.40700   1.000
    C8      C    0.28656   0.16388   0.31366   1.000
    C9      C    0.31346   0.16185   0.28239   1.000
    H5      H    0.33410   0.14180   0.28260   1.000
    C10     C    0.25312   0.22170   0.28245   1.000
    C11     C    0.25707   0.19403   0.31330   1.000
    H6      H    0.23880   0.19570   0.33520   1.000
    C12     C    0.41330   0.98990   0.46760   1.000
    H7      H    0.39920   0.98330   0.44450   1.000
    C13     C    0.45522   0.98940   0.46680   1.000
    H8      H    0.46870   0.98180   0.44370   1.000
    C14     C    0.41470   0.02970   0.48490   1.000
    H9      H    0.40080   0.04860   0.47010   1.000
    C15     C    0.45610   0.03190   0.48570   1.000
    H10     H    0.46960   0.05300   0.47370   1.000
    O3      O    0.82349   0.54138   0.95857   1.000
    O4      O    0.75557   0.54112   0.95896   1.000
    C16     C    0.78943   0.55262   0.94593   1.000
    C17     C    0.78918   0.58122   0.91180   1.000
    C18     C    0.82484   0.59521   0.89524   1.000
    H11     H    0.85000   0.58650   0.90600   1.000
    C19     C    0.82429   0.62162   0.86329   1.000
    H12     H    0.84910   0.63070   0.85200   1.000
    C20     C    0.78782   0.63510   0.84744   1.000
    C21     C    0.75215   0.62105   0.86444   1.000
    H13     H    0.72690   0.63010   0.85400   1.000
    C22     C    0.75243   0.59440   0.89600   1.000
    H14     H    0.72760   0.58500   0.90700   1.000
    C23     C    0.78656   0.66388   0.81366   1.000
    C24     C    0.81346   0.66185   0.78239   1.000
    H15     H    0.83410   0.64180   0.78260   1.000
    C25     C    0.75312   0.72170   0.78245   1.000
    C26     C    0.75707   0.69403   0.81330   1.000
    H16     H    0.73880   0.69570   0.83520   1.000
    C27     C    0.91330   0.48990   0.96760   1.000
    H17     H    0.89920   0.48330   0.94450   1.000
    C28     C    0.95522   0.48940   0.96680   1.000
    H18     H    0.96870   0.48180   0.94370   1.000
    C29     C    0.91470   0.52970   0.98490   1.000
    H19     H    0.90080   0.54860   0.97010   1.000
    C30     C    0.95610   0.53190   0.98570   1.000
    H20     H    0.96960   0.55300   0.97370   1.000
    O5      O    0.67651   0.95862   0.45857   1.000
    O6      O    0.74443   0.95888   0.45896   1.000
    C31     C    0.71057   0.94738   0.44593   1.000
    C32     C    0.71082   0.91878   0.41180   1.000
    C33     C    0.67516   0.90479   0.39524   1.000
    H21     H    0.65000   0.91350   0.40600   1.000
    C34     C    0.67571   0.87838   0.36329   1.000
    H22     H    0.65090   0.86930   0.35200   1.000
    C35     C    0.71218   0.86490   0.34744   1.000
    C36     C    0.74785   0.87895   0.36444   1.000
    H23     H    0.77310   0.86990   0.35400   1.000
    C37     C    0.74757   0.90560   0.39600   1.000
    H24     H    0.77240   0.91500   0.40700   1.000
    C38     C    0.71344   0.83612   0.31366   1.000
    C39     C    0.68654   0.83815   0.28239   1.000
    H25     H    0.66590   0.85820   0.28260   1.000
    C40     C    0.74688   0.77830   0.28245   1.000
    C41     C    0.74293   0.80597   0.31330   1.000
    H26     H    0.76120   0.80430   0.33520   1.000
    C42     C    0.58670   0.01010   0.46760   1.000
    H27     H    0.60080   0.01670   0.44450   1.000
    C43     C    0.54478   0.01060   0.46680   1.000
    H28     H    0.53130   0.01820   0.44370   1.000
    C44     C    0.58530   0.97030   0.48490   1.000
    H29     H    0.59920   0.95140   0.47010   1.000
    C45     C    0.54390   0.96810   0.48570   1.000
    H30     H    0.53040   0.94700   0.47370   1.000
    O7      O    0.17651   0.45862   0.95857   1.000
    O8      O    0.24443   0.45888   0.95896   1.000
    C46     C    0.21057   0.44738   0.94593   1.000
    C47     C    0.21082   0.41878   0.91180   1.000
    C48     C    0.17516   0.40479   0.89524   1.000
    H31     H    0.15000   0.41350   0.90600   1.000
    C49     C    0.17571   0.37838   0.86329   1.000
    H32     H    0.15090   0.36930   0.85200   1.000
    C50     C    0.21218   0.36490   0.84744   1.000
    C51     C    0.24785   0.37895   0.86444   1.000
    H33     H    0.27310   0.36990   0.85400   1.000
    C52     C    0.24757   0.40560   0.89600   1.000
    H34     H    0.27240   0.41500   0.90700   1.000
    C53     C    0.21344   0.33612   0.81366   1.000
    C54     C    0.18654   0.33815   0.78239   1.000
    H35     H    0.16590   0.35820   0.78260   1.000
    C55     C    0.24688   0.27830   0.78245   1.000
    C56     C    0.24293   0.30597   0.81330   1.000
    H36     H    0.26120   0.30430   0.83520   1.000
    C57     C    0.08670   0.51010   0.96760   1.000
    H37     H    0.10080   0.51670   0.94450   1.000
    C58     C    0.04478   0.51060   0.96680   1.000
    H38     H    0.03130   0.51820   0.94370   1.000
    C59     C    0.08530   0.47030   0.98490   1.000
    H39     H    0.09920   0.45140   0.97010   1.000
    C60     C    0.04390   0.46810   0.98570   1.000
    H40     H    0.03040   0.44700   0.97370   1.000
    O9      O    0.95862   0.32349   0.45857   1.000
    O10     O    0.95888   0.25557   0.45896   1.000
    C61     C    0.94738   0.28943   0.44593   1.000
    C62     C    0.91878   0.28918   0.41180   1.000
    C63     C    0.90479   0.32484   0.39524   1.000
    H41     H    0.91350   0.35000   0.40600   1.000
    C64     C    0.87838   0.32429   0.36329   1.000
    H42     H    0.86930   0.34910   0.35200   1.000
    C65     C    0.86490   0.28782   0.34744   1.000
    C66     C    0.87895   0.25215   0.36444   1.000
    H43     H    0.86990   0.22690   0.35400   1.000
    C67     C    0.90560   0.25243   0.39600   1.000
    H44     H    0.91500   0.22760   0.40700   1.000
    C68     C    0.83612   0.28656   0.31366   1.000
    C69     C    0.83815   0.31346   0.28239   1.000
    H45     H    0.85820   0.33410   0.28260   1.000
    C70     C    0.77830   0.25312   0.28245   1.000
    C71     C    0.80597   0.25707   0.31330   1.000
    H46     H    0.80430   0.23880   0.33520   1.000
    C72     C    0.01010   0.41330   0.46760   1.000
    H47     H    0.01670   0.39920   0.44450   1.000
    C73     C    0.01060   0.45522   0.46680   1.000
    H48     H    0.01820   0.46870   0.44370   1.000
    C74     C    0.97030   0.41470   0.48490   1.000
    H49     H    0.95140   0.40080   0.47010   1.000
    C75     C    0.96810   0.45610   0.48570   1.000
    H50     H    0.94700   0.46960   0.47370   1.000
    O11     O    0.45862   0.82349   0.95857   1.000
    O12     O    0.45888   0.75557   0.95896   1.000
    C76     C    0.44738   0.78943   0.94593   1.000
    C77     C    0.41878   0.78918   0.91180   1.000
    C78     C    0.40479   0.82484   0.89524   1.000
    H51     H    0.41350   0.85000   0.90600   1.000
    C79     C    0.37838   0.82429   0.86329   1.000
    H52     H    0.36930   0.84910   0.85200   1.000
    C80     C    0.36490   0.78782   0.84744   1.000
    C81     C    0.37895   0.75215   0.86444   1.000
    H53     H    0.36990   0.72690   0.85400   1.000
    C82     C    0.40560   0.75243   0.89600   1.000
    H54     H    0.41500   0.72760   0.90700   1.000
    C83     C    0.33612   0.78656   0.81366   1.000
    C84     C    0.33815   0.81346   0.78239   1.000
    H55     H    0.35820   0.83410   0.78260   1.000
    C85     C    0.27830   0.75312   0.78245   1.000
    C86     C    0.30597   0.75707   0.81330   1.000
    H56     H    0.30430   0.73880   0.83520   1.000
    C87     C    0.51010   0.91330   0.96760   1.000
    H57     H    0.51670   0.89920   0.94450   1.000
    C88     C    0.51060   0.95522   0.96680   1.000
    H58     H    0.51820   0.96870   0.94370   1.000
    C89     C    0.47030   0.91470   0.98490   1.000
    H59     H    0.45140   0.90080   0.97010   1.000
    C90     C    0.46810   0.95610   0.98570   1.000
    H60     H    0.44700   0.96960   0.97370   1.000
    O13     O    0.04138   0.67651   0.45857   1.000
    O14     O    0.04112   0.74443   0.45896   1.000
    C91     C    0.05262   0.71057   0.44593   1.000
    C92     C    0.08122   0.71082   0.41180   1.000
    C93     C    0.09521   0.67516   0.39524   1.000
    H61     H    0.08650   0.65000   0.40600   1.000
    C94     C    0.12162   0.67571   0.36329   1.000
    H62     H    0.13070   0.65090   0.35200   1.000
    C95     C    0.13510   0.71218   0.34744   1.000
    C96     C    0.12105   0.74785   0.36444   1.000
    H63     H    0.13010   0.77310   0.35400   1.000
    C97     C    0.09440   0.74757   0.39600   1.000
    H64     H    0.08500   0.77240   0.40700   1.000
    C98     C    0.16388   0.71344   0.31366   1.000
    C99     C    0.16185   0.68654   0.28239   1.000
    H65     H    0.14180   0.66590   0.28260   1.000
    C100    C    0.22170   0.74688   0.28245   1.000
    C101    C    0.19403   0.74293   0.31330   1.000
    H66     H    0.19570   0.76120   0.33520   1.000
    C102    C    0.98990   0.58670   0.46760   1.000
    H67     H    0.98330   0.60080   0.44450   1.000
    C103    C    0.98940   0.54478   0.46680   1.000
    H68     H    0.98180   0.53130   0.44370   1.000
    C104    C    0.02970   0.58530   0.48490   1.000
    H69     H    0.04860   0.59920   0.47010   1.000
    C105    C    0.03190   0.54390   0.48570   1.000
    H70     H    0.05300   0.53040   0.47370   1.000
    O15     O    0.54138   0.17651   0.95857   1.000
    O16     O    0.54112   0.24443   0.95896   1.000
    C106    C    0.55262   0.21057   0.94593   1.000
    C107    C    0.58122   0.21082   0.91180   1.000
    C108    C    0.59521   0.17516   0.89524   1.000
    H71     H    0.58650   0.15000   0.90600   1.000
    C109    C    0.62162   0.17571   0.86329   1.000
    H72     H    0.63070   0.15090   0.85200   1.000
    C110    C    0.63510   0.21218   0.84744   1.000
    C111    C    0.62105   0.24785   0.86444   1.000
    H73     H    0.63010   0.27310   0.85400   1.000
    C112    C    0.59440   0.24757   0.89600   1.000
    H74     H    0.58500   0.27240   0.90700   1.000
    C113    C    0.66388   0.21344   0.81366   1.000
    C114    C    0.66185   0.18654   0.78239   1.000
    H75     H    0.64180   0.16590   0.78260   1.000
    C115    C    0.72170   0.24688   0.78245   1.000
    C116    C    0.69403   0.24293   0.81330   1.000
    H76     H    0.69570   0.26120   0.83520   1.000
    C117    C    0.48990   0.08670   0.96760   1.000
    H77     H    0.48330   0.10080   0.94450   1.000
    C118    C    0.48940   0.04478   0.96680   1.000
    H78     H    0.48180   0.03130   0.94370   1.000
    C119    C    0.52970   0.08530   0.98490   1.000
    H79     H    0.54860   0.09920   0.97010   1.000
    C120    C    0.53190   0.04390   0.98570   1.000
    H80     H    0.55300   0.03040   0.97370   1.000
    O17     O    0.67651   0.04138   0.54143   1.000
    O18     O    0.74443   0.04112   0.54104   1.000
    C121    C    0.71057   0.05262   0.55407   1.000
    C122    C    0.71082   0.08122   0.58820   1.000
    C123    C    0.67516   0.09521   0.60476   1.000
    H81     H    0.65000   0.08650   0.59400   1.000
    C124    C    0.67571   0.12162   0.63671   1.000
    H82     H    0.65090   0.13070   0.64800   1.000
    C125    C    0.71218   0.13510   0.65256   1.000
    C126    C    0.74785   0.12105   0.63556   1.000
    H83     H    0.77310   0.13010   0.64600   1.000
    C127    C    0.74757   0.09440   0.60400   1.000
    H84     H    0.77240   0.08500   0.59300   1.000
    C128    C    0.71344   0.16388   0.68634   1.000
    C129    C    0.68654   0.16185   0.71761   1.000
    H85     H    0.66590   0.14180   0.71740   1.000
    C130    C    0.74688   0.22170   0.71755   1.000
    C131    C    0.74293   0.19403   0.68670   1.000
    H86     H    0.76120   0.19570   0.66480   1.000
    C132    C    0.58670   0.98990   0.53240   1.000
    H87     H    0.60080   0.98330   0.55550   1.000
    C133    C    0.54478   0.98940   0.53320   1.000
    H88     H    0.53130   0.98180   0.55630   1.000
    C134    C    0.58530   0.02970   0.51510   1.000
    H89     H    0.59920   0.04860   0.52990   1.000
    C135    C    0.54390   0.03190   0.51430   1.000
    H90     H    0.53040   0.05300   0.52630   1.000
    O19     O    0.17651   0.54138   0.04143   1.000
    O20     O    0.24443   0.54112   0.04104   1.000
    C136    C    0.21057   0.55262   0.05407   1.000
    C137    C    0.21082   0.58122   0.08820   1.000
    C138    C    0.17516   0.59521   0.10476   1.000
    H91     H    0.15000   0.58650   0.09400   1.000
    C139    C    0.17571   0.62162   0.13671   1.000
    H92     H    0.15090   0.63070   0.14800   1.000
    C140    C    0.21218   0.63510   0.15256   1.000
    C141    C    0.24785   0.62105   0.13556   1.000
    H93     H    0.27310   0.63010   0.14600   1.000
    C142    C    0.24757   0.59440   0.10400   1.000
    H94     H    0.27240   0.58500   0.09300   1.000
    C143    C    0.21344   0.66388   0.18634   1.000
    C144    C    0.18654   0.66185   0.21761   1.000
    H95     H    0.16590   0.64180   0.21740   1.000
    C145    C    0.24688   0.72170   0.21755   1.000
    C146    C    0.24293   0.69403   0.18670   1.000
    H96     H    0.26120   0.69570   0.16480   1.000
    C147    C    0.08670   0.48990   0.03240   1.000
    H97     H    0.10080   0.48330   0.05550   1.000
    C148    C    0.04478   0.48940   0.03320   1.000
    H98     H    0.03130   0.48180   0.05630   1.000
    C149    C    0.08530   0.52970   0.01510   1.000
    H99     H    0.09920   0.54860   0.02990   1.000
    C150    C    0.04390   0.53190   0.01430   1.000
    H100    H    0.03040   0.55300   0.02630   1.000
    O21     O    0.32349   0.95862   0.54143   1.000
    O22     O    0.25557   0.95888   0.54104   1.000
    C151    C    0.28943   0.94738   0.55407   1.000
    C152    C    0.28918   0.91878   0.58820   1.000
    C153    C    0.32484   0.90479   0.60476   1.000
    H101    H    0.35000   0.91350   0.59400   1.000
    C154    C    0.32429   0.87838   0.63671   1.000
    H102    H    0.34910   0.86930   0.64800   1.000
    C155    C    0.28782   0.86490   0.65256   1.000
    C156    C    0.25215   0.87895   0.63556   1.000
    H103    H    0.22690   0.86990   0.64600   1.000
    C157    C    0.25243   0.90560   0.60400   1.000
    H104    H    0.22760   0.91500   0.59300   1.000
    C158    C    0.28656   0.83612   0.68634   1.000
    C159    C    0.31346   0.83815   0.71761   1.000
    H105    H    0.33410   0.85820   0.71740   1.000
    C160    C    0.25312   0.77830   0.71755   1.000
    C161    C    0.25707   0.80597   0.68670   1.000
    H106    H    0.23880   0.80430   0.66480   1.000
    C162    C    0.41330   0.01010   0.53240   1.000
    H107    H    0.39920   0.01670   0.55550   1.000
    C163    C    0.45522   0.01060   0.53320   1.000
    H108    H    0.46870   0.01820   0.55630   1.000
    C164    C    0.41470   0.97030   0.51510   1.000
    H109    H    0.40080   0.95140   0.52990   1.000
    C165    C    0.45610   0.96810   0.51430   1.000
    H110    H    0.46960   0.94700   0.52630   1.000
    O23     O    0.82349   0.45862   0.04143   1.000
    O24     O    0.75557   0.45888   0.04104   1.000
    C166    C    0.78943   0.44738   0.05407   1.000
    C167    C    0.78918   0.41878   0.08820   1.000
    C168    C    0.82484   0.40479   0.10476   1.000
    H111    H    0.85000   0.41350   0.09400   1.000
    C169    C    0.82429   0.37838   0.13671   1.000
    H112    H    0.84910   0.36930   0.14800   1.000
    C170    C    0.78782   0.36490   0.15256   1.000
    C171    C    0.75215   0.37895   0.13556   1.000
    H113    H    0.72690   0.36990   0.14600   1.000
    C172    C    0.75243   0.40560   0.10400   1.000
    H114    H    0.72760   0.41500   0.09300   1.000
    C173    C    0.78656   0.33612   0.18634   1.000
    C174    C    0.81346   0.33815   0.21761   1.000
    H115    H    0.83410   0.35820   0.21740   1.000
    C175    C    0.75312   0.27830   0.21755   1.000
    C176    C    0.75707   0.30597   0.18670   1.000
    H116    H    0.73880   0.30430   0.16480   1.000
    C177    C    0.91330   0.51010   0.03240   1.000
    H117    H    0.89920   0.51670   0.05550   1.000
    C178    C    0.95522   0.51060   0.03320   1.000
    H118    H    0.96870   0.51820   0.05630   1.000
    C179    C    0.91470   0.47030   0.01510   1.000
    H119    H    0.90080   0.45140   0.02990   1.000
    C180    C    0.95610   0.46810   0.01430   1.000
    H120    H    0.96960   0.44700   0.02630   1.000
    O25     O    0.04138   0.32349   0.54143   1.000
    O26     O    0.04112   0.25557   0.54104   1.000
    C181    C    0.05262   0.28943   0.55407   1.000
    C182    C    0.08122   0.28918   0.58820   1.000
    C183    C    0.09521   0.32484   0.60476   1.000
    H121    H    0.08650   0.35000   0.59400   1.000
    C184    C    0.12162   0.32429   0.63671   1.000
    H122    H    0.13070   0.34910   0.64800   1.000
    C185    C    0.13510   0.28782   0.65256   1.000
    C186    C    0.12105   0.25215   0.63556   1.000
    H123    H    0.13010   0.22690   0.64600   1.000
    C187    C    0.09440   0.25243   0.60400   1.000
    H124    H    0.08500   0.22760   0.59300   1.000
    C188    C    0.16388   0.28656   0.68634   1.000
    C189    C    0.16185   0.31346   0.71761   1.000
    H125    H    0.14180   0.33410   0.71740   1.000
    C190    C    0.22170   0.25312   0.71755   1.000
    C191    C    0.19403   0.25707   0.68670   1.000
    H126    H    0.19570   0.23880   0.66480   1.000
    C192    C    0.98990   0.41330   0.53240   1.000
    H127    H    0.98330   0.39920   0.55550   1.000
    C193    C    0.98940   0.45522   0.53320   1.000
    H128    H    0.98180   0.46870   0.55630   1.000
    C194    C    0.02970   0.41470   0.51510   1.000
    H129    H    0.04860   0.40080   0.52990   1.000
    C195    C    0.03190   0.45610   0.51430   1.000
    H130    H    0.05300   0.46960   0.52630   1.000
    O27     O    0.54138   0.82349   0.04143   1.000
    O28     O    0.54112   0.75557   0.04104   1.000
    C196    C    0.55262   0.78943   0.05407   1.000
    C197    C    0.58122   0.78918   0.08820   1.000
    C198    C    0.59521   0.82484   0.10476   1.000
    H131    H    0.58650   0.85000   0.09400   1.000
    C199    C    0.62162   0.82429   0.13671   1.000
    H132    H    0.63070   0.84910   0.14800   1.000
    C200    C    0.63510   0.78782   0.15256   1.000
    C201    C    0.62105   0.75215   0.13556   1.000
    H133    H    0.63010   0.72690   0.14600   1.000
    C202    C    0.59440   0.75243   0.10400   1.000
    H134    H    0.58500   0.72760   0.09300   1.000
    C203    C    0.66388   0.78656   0.18634   1.000
    C204    C    0.66185   0.81346   0.21761   1.000
    H135    H    0.64180   0.83410   0.21740   1.000
    C205    C    0.72170   0.75312   0.21755   1.000
    C206    C    0.69403   0.75707   0.18670   1.000
    H136    H    0.69570   0.73880   0.16480   1.000
    C207    C    0.48990   0.91330   0.03240   1.000
    H137    H    0.48330   0.89920   0.05550   1.000
    C208    C    0.48940   0.95522   0.03320   1.000
    H138    H    0.48180   0.96870   0.05630   1.000
    C209    C    0.52970   0.91470   0.01510   1.000
    H139    H    0.54860   0.90080   0.02990   1.000
    C210    C    0.53190   0.95610   0.01430   1.000
    H140    H    0.55300   0.96960   0.02630   1.000
    O29     O    0.95862   0.67651   0.54143   1.000
    O30     O    0.95888   0.74443   0.54104   1.000
    C211    C    0.94738   0.71057   0.55407   1.000
    C212    C    0.91878   0.71082   0.58820   1.000
    C213    C    0.90479   0.67516   0.60476   1.000
    H141    H    0.91350   0.65000   0.59400   1.000
    C214    C    0.87838   0.67571   0.63671   1.000
    H142    H    0.86930   0.65090   0.64800   1.000
    C215    C    0.86490   0.71218   0.65256   1.000
    C216    C    0.87895   0.74785   0.63556   1.000
    H143    H    0.86990   0.77310   0.64600   1.000
    C217    C    0.90560   0.74757   0.60400   1.000
    H144    H    0.91500   0.77240   0.59300   1.000
    C218    C    0.83612   0.71344   0.68634   1.000
    C219    C    0.83815   0.68654   0.71761   1.000
    H145    H    0.85820   0.66590   0.71740   1.000
    C220    C    0.77830   0.74688   0.71755   1.000
    C221    C    0.80597   0.74293   0.68670   1.000
    H146    H    0.80430   0.76120   0.66480   1.000
    C222    C    0.01010   0.58670   0.53240   1.000
    H147    H    0.01670   0.60080   0.55550   1.000
    C223    C    0.01060   0.54478   0.53320   1.000
    H148    H    0.01820   0.53130   0.55630   1.000
    C224    C    0.97030   0.58530   0.51510   1.000
    H149    H    0.95140   0.59920   0.52990   1.000
    C225    C    0.96810   0.54390   0.51430   1.000
    H150    H    0.94700   0.53040   0.52630   1.000
    O31     O    0.45862   0.17651   0.04143   1.000
    O32     O    0.45888   0.24443   0.04104   1.000
    C226    C    0.44738   0.21057   0.05407   1.000
    C227    C    0.41878   0.21082   0.08820   1.000
    C228    C    0.40479   0.17516   0.10476   1.000
    H151    H    0.41350   0.15000   0.09400   1.000
    C229    C    0.37838   0.17571   0.13671   1.000
    H152    H    0.36930   0.15090   0.14800   1.000
    C230    C    0.36490   0.21218   0.15256   1.000
    C231    C    0.37895   0.24785   0.13556   1.000
    H153    H    0.36990   0.27310   0.14600   1.000
    C232    C    0.40560   0.24757   0.10400   1.000
    H154    H    0.41500   0.27240   0.09300   1.000
    C233    C    0.33612   0.21344   0.18634   1.000
    C234    C    0.33815   0.18654   0.21761   1.000
    H155    H    0.35820   0.16590   0.21740   1.000
    C235    C    0.27830   0.24688   0.21755   1.000
    C236    C    0.30597   0.24293   0.18670   1.000
    H156    H    0.30430   0.26120   0.16480   1.000
    C237    C    0.51010   0.08670   0.03240   1.000
    H157    H    0.51670   0.10080   0.05550   1.000
    C238    C    0.51060   0.04478   0.03320   1.000
    H158    H    0.51820   0.03130   0.05630   1.000
    C239    C    0.47030   0.08530   0.01510   1.000
    H159    H    0.45140   0.09920   0.02990   1.000
    C240    C    0.46810   0.04390   0.01430   1.000
    H160    H    0.44700   0.03040   0.02630   1.000
    O33     O    0.67651   0.95862   0.54143   1.000
    O34     O    0.74443   0.95888   0.54104   1.000
    C241    C    0.71057   0.94738   0.55407   1.000
    C242    C    0.71082   0.91878   0.58820   1.000
    C243    C    0.67516   0.90479   0.60476   1.000
    H161    H    0.65000   0.91350   0.59400   1.000
    C244    C    0.67571   0.87838   0.63671   1.000
    H162    H    0.65090   0.86930   0.64800   1.000
    C245    C    0.71218   0.86490   0.65256   1.000
    C246    C    0.74785   0.87895   0.63556   1.000
    H163    H    0.77310   0.86990   0.64600   1.000
    C247    C    0.74757   0.90560   0.60400   1.000
    H164    H    0.77240   0.91500   0.59300   1.000
    C248    C    0.71344   0.83612   0.68634   1.000
    C249    C    0.68654   0.83815   0.71761   1.000
    H165    H    0.66590   0.85820   0.71740   1.000
    C250    C    0.74688   0.77830   0.71755   1.000
    C251    C    0.74293   0.80597   0.68670   1.000
    H166    H    0.76120   0.80430   0.66480   1.000
    C252    C    0.58670   0.01010   0.53240   1.000
    H167    H    0.60080   0.01670   0.55550   1.000
    C253    C    0.54478   0.01060   0.53320   1.000
    H168    H    0.53130   0.01820   0.55630   1.000
    C254    C    0.58530   0.97030   0.51510   1.000
    H169    H    0.59920   0.95140   0.52990   1.000
    C255    C    0.54390   0.96810   0.51430   1.000
    H170    H    0.53040   0.94700   0.52630   1.000
    O35     O    0.17651   0.45862   0.04143   1.000
    O36     O    0.24443   0.45888   0.04104   1.000
    C256    C    0.21057   0.44738   0.05407   1.000
    C257    C    0.21082   0.41878   0.08820   1.000
    C258    C    0.17516   0.40479   0.10476   1.000
    H171    H    0.15000   0.41350   0.09400   1.000
    C259    C    0.17571   0.37838   0.13671   1.000
    H172    H    0.15090   0.36930   0.14800   1.000
    C260    C    0.21218   0.36490   0.15256   1.000
    C261    C    0.24785   0.37895   0.13556   1.000
    H173    H    0.27310   0.36990   0.14600   1.000
    C262    C    0.24757   0.40560   0.10400   1.000
    H174    H    0.27240   0.41500   0.09300   1.000
    C263    C    0.21344   0.33612   0.18634   1.000
    C264    C    0.18654   0.33815   0.21761   1.000
    H175    H    0.16590   0.35820   0.21740   1.000
    C265    C    0.24688   0.27830   0.21755   1.000
    C266    C    0.24293   0.30597   0.18670   1.000
    H176    H    0.26120   0.30430   0.16480   1.000
    C267    C    0.08670   0.51010   0.03240   1.000
    H177    H    0.10080   0.51670   0.05550   1.000
    C268    C    0.04478   0.51060   0.03320   1.000
    H178    H    0.03130   0.51820   0.05630   1.000
    C269    C    0.08530   0.47030   0.01510   1.000
    H179    H    0.09920   0.45140   0.02990   1.000
    C270    C    0.04390   0.46810   0.01430   1.000
    H180    H    0.03040   0.44700   0.02630   1.000
    O37     O    0.32349   0.04138   0.54143   1.000
    O38     O    0.25557   0.04112   0.54104   1.000
    C271    C    0.28943   0.05262   0.55407   1.000
    C272    C    0.28918   0.08122   0.58820   1.000
    C273    C    0.32484   0.09521   0.60476   1.000
    H181    H    0.35000   0.08650   0.59400   1.000
    C274    C    0.32429   0.12162   0.63671   1.000
    H182    H    0.34910   0.13070   0.64800   1.000
    C275    C    0.28782   0.13510   0.65256   1.000
    C276    C    0.25215   0.12105   0.63556   1.000
    H183    H    0.22690   0.13010   0.64600   1.000
    C277    C    0.25243   0.09440   0.60400   1.000
    H184    H    0.22760   0.08500   0.59300   1.000
    C278    C    0.28656   0.16388   0.68634   1.000
    C279    C    0.31346   0.16185   0.71761   1.000
    H185    H    0.33410   0.14180   0.71740   1.000
    C280    C    0.25312   0.22170   0.71755   1.000
    C281    C    0.25707   0.19403   0.68670   1.000
    H186    H    0.23880   0.19570   0.66480   1.000
    C282    C    0.41330   0.98990   0.53240   1.000
    H187    H    0.39920   0.98330   0.55550   1.000
    C283    C    0.45522   0.98940   0.53320   1.000
    H188    H    0.46870   0.98180   0.55630   1.000
    C284    C    0.41470   0.02970   0.51510   1.000
    H189    H    0.40080   0.04860   0.52990   1.000
    C285    C    0.45610   0.03190   0.51430   1.000
    H190    H    0.46960   0.05300   0.52630   1.000
    O39     O    0.82349   0.54138   0.04143   1.000
    O40     O    0.75557   0.54112   0.04104   1.000
    C286    C    0.78943   0.55262   0.05407   1.000
    C287    C    0.78918   0.58122   0.08820   1.000
    C288    C    0.82484   0.59521   0.10476   1.000
    H191    H    0.85000   0.58650   0.09400   1.000
    C289    C    0.82429   0.62162   0.13671   1.000
    H192    H    0.84910   0.63070   0.14800   1.000
    C290    C    0.78782   0.63510   0.15256   1.000
    C291    C    0.75215   0.62105   0.13556   1.000
    H193    H    0.72690   0.63010   0.14600   1.000
    C292    C    0.75243   0.59440   0.10400   1.000
    H194    H    0.72760   0.58500   0.09300   1.000
    C293    C    0.78656   0.66388   0.18634   1.000
    C294    C    0.81346   0.66185   0.21761   1.000
    H195    H    0.83410   0.64180   0.21740   1.000
    C295    C    0.75312   0.72170   0.21755   1.000
    C296    C    0.75707   0.69403   0.18670   1.000
    H196    H    0.73880   0.69570   0.16480   1.000
    C297    C    0.91330   0.48990   0.03240   1.000
    H197    H    0.89920   0.48330   0.05550   1.000
    C298    C    0.95522   0.48940   0.03320   1.000
    H198    H    0.96870   0.48180   0.05630   1.000
    C299    C    0.91470   0.52970   0.01510   1.000
    H199    H    0.90080   0.54860   0.02990   1.000
    C300    C    0.95610   0.53190   0.01430   1.000
    H200    H    0.96960   0.55300   0.02630   1.000
    O41     O    0.04138   0.67651   0.54143   1.000
    O42     O    0.04112   0.74443   0.54104   1.000
    C301    C    0.05262   0.71057   0.55407   1.000
    C302    C    0.08122   0.71082   0.58820   1.000
    C303    C    0.09521   0.67516   0.60476   1.000
    H201    H    0.08650   0.65000   0.59400   1.000
    C304    C    0.12162   0.67571   0.63671   1.000
    H202    H    0.13070   0.65090   0.64800   1.000
    C305    C    0.13510   0.71218   0.65256   1.000
    C306    C    0.12105   0.74785   0.63556   1.000
    H203    H    0.13010   0.77310   0.64600   1.000
    C307    C    0.09440   0.74757   0.60400   1.000
    H204    H    0.08500   0.77240   0.59300   1.000
    C308    C    0.16388   0.71344   0.68634   1.000
    C309    C    0.16185   0.68654   0.71761   1.000
    H205    H    0.14180   0.66590   0.71740   1.000
    C310    C    0.22170   0.74688   0.71755   1.000
    C311    C    0.19403   0.74293   0.68670   1.000
    H206    H    0.19570   0.76120   0.66480   1.000
    C312    C    0.98990   0.58670   0.53240   1.000
    H207    H    0.98330   0.60080   0.55550   1.000
    C313    C    0.98940   0.54478   0.53320   1.000
    H208    H    0.98180   0.53130   0.55630   1.000
    C314    C    0.02970   0.58530   0.51510   1.000
    H209    H    0.04860   0.59920   0.52990   1.000
    C315    C    0.03190   0.54390   0.51430   1.000
    H210    H    0.05300   0.53040   0.52630   1.000
    O43     O    0.54138   0.17651   0.04143   1.000
    O44     O    0.54112   0.24443   0.04104   1.000
    C316    C    0.55262   0.21057   0.05407   1.000
    C317    C    0.58122   0.21082   0.08820   1.000
    C318    C    0.59521   0.17516   0.10476   1.000
    H211    H    0.58650   0.15000   0.09400   1.000
    C319    C    0.62162   0.17571   0.13671   1.000
    H212    H    0.63070   0.15090   0.14800   1.000
    C320    C    0.63510   0.21218   0.15256   1.000
    C321    C    0.62105   0.24785   0.13556   1.000
    H213    H    0.63010   0.27310   0.14600   1.000
    C322    C    0.59440   0.24757   0.10400   1.000
    H214    H    0.58500   0.27240   0.09300   1.000
    C323    C    0.66388   0.21344   0.18634   1.000
    C324    C    0.66185   0.18654   0.21761   1.000
    H215    H    0.64180   0.16590   0.21740   1.000
    C325    C    0.72170   0.24688   0.21755   1.000
    C326    C    0.69403   0.24293   0.18670   1.000
    H216    H    0.69570   0.26120   0.16480   1.000
    C327    C    0.48990   0.08670   0.03240   1.000
    H217    H    0.48330   0.10080   0.05550   1.000
    C328    C    0.48940   0.04478   0.03320   1.000
    H218    H    0.48180   0.03130   0.05630   1.000
    C329    C    0.52970   0.08530   0.01510   1.000
    H219    H    0.54860   0.09920   0.02990   1.000
    C330    C    0.53190   0.04390   0.01430   1.000
    H220    H    0.55300   0.03040   0.02630   1.000
    O45     O    0.95862   0.32349   0.54143   1.000
    O46     O    0.95888   0.25557   0.54104   1.000
    C331    C    0.94738   0.28943   0.55407   1.000
    C332    C    0.91878   0.28918   0.58820   1.000
    C333    C    0.90479   0.32484   0.60476   1.000
    H221    H    0.91350   0.35000   0.59400   1.000
    C334    C    0.87838   0.32429   0.63671   1.000
    H222    H    0.86930   0.34910   0.64800   1.000
    C335    C    0.86490   0.28782   0.65256   1.000
    C336    C    0.87895   0.25215   0.63556   1.000
    H223    H    0.86990   0.22690   0.64600   1.000
    C337    C    0.90560   0.25243   0.60400   1.000
    H224    H    0.91500   0.22760   0.59300   1.000
    C338    C    0.83612   0.28656   0.68634   1.000
    C339    C    0.83815   0.31346   0.71761   1.000
    H225    H    0.85820   0.33410   0.71740   1.000
    C340    C    0.77830   0.25312   0.71755   1.000
    C341    C    0.80597   0.25707   0.68670   1.000
    H226    H    0.80430   0.23880   0.66480   1.000
    C342    C    0.01010   0.41330   0.53240   1.000
    H227    H    0.01670   0.39920   0.55550   1.000
    C343    C    0.01060   0.45522   0.53320   1.000
    H228    H    0.01820   0.46870   0.55630   1.000
    C344    C    0.97030   0.41470   0.51510   1.000
    H229    H    0.95140   0.40080   0.52990   1.000
    C345    C    0.96810   0.45610   0.51430   1.000
    H230    H    0.94700   0.46960   0.52630   1.000
    O47     O    0.45862   0.82349   0.04143   1.000
    O48     O    0.45888   0.75557   0.04104   1.000
    C346    C    0.44738   0.78943   0.05407   1.000
    C347    C    0.41878   0.78918   0.08820   1.000
    C348    C    0.40479   0.82484   0.10476   1.000
    H231    H    0.41350   0.85000   0.09400   1.000
    C349    C    0.37838   0.82429   0.13671   1.000
    H232    H    0.36930   0.84910   0.14800   1.000
    C350    C    0.36490   0.78782   0.15256   1.000
    C351    C    0.37895   0.75215   0.13556   1.000
    H233    H    0.36990   0.72690   0.14600   1.000
    C352    C    0.40560   0.75243   0.10400   1.000
    H234    H    0.41500   0.72760   0.09300   1.000
    C353    C    0.33612   0.78656   0.18634   1.000
    C354    C    0.33815   0.81346   0.21761   1.000
    H235    H    0.35820   0.83410   0.21740   1.000
    C355    C    0.27830   0.75312   0.21755   1.000
    C356    C    0.30597   0.75707   0.18670   1.000
    H236    H    0.30430   0.73880   0.16480   1.000
    C357    C    0.51010   0.91330   0.03240   1.000
    H237    H    0.51670   0.89920   0.05550   1.000
    C358    C    0.51060   0.95522   0.03320   1.000
    H238    H    0.51820   0.96870   0.05630   1.000
    C359    C    0.47030   0.91470   0.01510   1.000
    H239    H    0.45140   0.90080   0.02990   1.000
    C360    C    0.46810   0.95610   0.01430   1.000
    H240    H    0.44700   0.96960   0.02630   1.000
    O49     O    0.32349   0.95862   0.45857   1.000
    O50     O    0.25557   0.95888   0.45896   1.000
    C361    C    0.28943   0.94738   0.44593   1.000
    C362    C    0.28918   0.91878   0.41180   1.000
    C363    C    0.32484   0.90479   0.39524   1.000
    H241    H    0.35000   0.91350   0.40600   1.000
    C364    C    0.32429   0.87838   0.36329   1.000
    H242    H    0.34910   0.86930   0.35200   1.000
    C365    C    0.28782   0.86490   0.34744   1.000
    C366    C    0.25215   0.87895   0.36444   1.000
    H243    H    0.22690   0.86990   0.35400   1.000
    C367    C    0.25243   0.90560   0.39600   1.000
    H244    H    0.22760   0.91500   0.40700   1.000
    C368    C    0.28656   0.83612   0.31366   1.000
    C369    C    0.31346   0.83815   0.28239   1.000
    H245    H    0.33410   0.85820   0.28260   1.000
    C370    C    0.25312   0.77830   0.28245   1.000
    C371    C    0.25707   0.80597   0.31330   1.000
    H246    H    0.23880   0.80430   0.33520   1.000
    C372    C    0.41330   0.01010   0.46760   1.000
    H247    H    0.39920   0.01670   0.44450   1.000
    C373    C    0.45522   0.01060   0.46680   1.000
    H248    H    0.46870   0.01820   0.44370   1.000
    C374    C    0.41470   0.97030   0.48490   1.000
    H249    H    0.40080   0.95140   0.47010   1.000
    C375    C    0.45610   0.96810   0.48570   1.000
    H250    H    0.46960   0.94700   0.47370   1.000
    O51     O    0.82349   0.45862   0.95857   1.000
    O52     O    0.75557   0.45888   0.95896   1.000
    C376    C    0.78943   0.44738   0.94593   1.000
    C377    C    0.78918   0.41878   0.91180   1.000
    C378    C    0.82484   0.40479   0.89524   1.000
    H251    H    0.85000   0.41350   0.90600   1.000
    C379    C    0.82429   0.37838   0.86329   1.000
    H252    H    0.84910   0.36930   0.85200   1.000
    C380    C    0.78782   0.36490   0.84744   1.000
    C381    C    0.75215   0.37895   0.86444   1.000
    H253    H    0.72690   0.36990   0.85400   1.000
    C382    C    0.75243   0.40560   0.89600   1.000
    H254    H    0.72760   0.41500   0.90700   1.000
    C383    C    0.78656   0.33612   0.81366   1.000
    C384    C    0.81346   0.33815   0.78239   1.000
    H255    H    0.83410   0.35820   0.78260   1.000
    C385    C    0.75312   0.27830   0.78245   1.000
    C386    C    0.75707   0.30597   0.81330   1.000
    H256    H    0.73880   0.30430   0.83520   1.000
    C387    C    0.91330   0.51010   0.96760   1.000
    H257    H    0.89920   0.51670   0.94450   1.000
    C388    C    0.95522   0.51060   0.96680   1.000
    H258    H    0.96870   0.51820   0.94370   1.000
    C389    C    0.91470   0.47030   0.98490   1.000
    H259    H    0.90080   0.45140   0.97010   1.000
    C390    C    0.95610   0.46810   0.98570   1.000
    H260    H    0.96960   0.44700   0.97370   1.000
    O53     O    0.67651   0.04138   0.45857   1.000
    O54     O    0.74443   0.04112   0.45896   1.000
    C391    C    0.71057   0.05262   0.44593   1.000
    C392    C    0.71082   0.08122   0.41180   1.000
    C393    C    0.67516   0.09521   0.39524   1.000
    H261    H    0.65000   0.08650   0.40600   1.000
    C394    C    0.67571   0.12162   0.36329   1.000
    H262    H    0.65090   0.13070   0.35200   1.000
    C395    C    0.71218   0.13510   0.34744   1.000
    C396    C    0.74785   0.12105   0.36444   1.000
    H263    H    0.77310   0.13010   0.35400   1.000
    C397    C    0.74757   0.09440   0.39600   1.000
    H264    H    0.77240   0.08500   0.40700   1.000
    C398    C    0.71344   0.16388   0.31366   1.000
    C399    C    0.68654   0.16185   0.28239   1.000
    H265    H    0.66590   0.14180   0.28260   1.000
    C400    C    0.74688   0.22170   0.28245   1.000
    C401    C    0.74293   0.19403   0.31330   1.000
    H266    H    0.76120   0.19570   0.33520   1.000
    C402    C    0.58670   0.98990   0.46760   1.000
    H267    H    0.60080   0.98330   0.44450   1.000
    C403    C    0.54478   0.98940   0.46680   1.000
    H268    H    0.53130   0.98180   0.44370   1.000
    C404    C    0.58530   0.02970   0.48490   1.000
    H269    H    0.59920   0.04860   0.47010   1.000
    C405    C    0.54390   0.03190   0.48570   1.000
    H270    H    0.53040   0.05300   0.47370   1.000
    O55     O    0.17651   0.54138   0.95857   1.000
    O56     O    0.24443   0.54112   0.95896   1.000
    C406    C    0.21057   0.55262   0.94593   1.000
    C407    C    0.21082   0.58122   0.91180   1.000
    C408    C    0.17516   0.59521   0.89524   1.000
    H271    H    0.15000   0.58650   0.90600   1.000
    C409    C    0.17571   0.62162   0.86329   1.000
    H272    H    0.15090   0.63070   0.85200   1.000
    C410    C    0.21218   0.63510   0.84744   1.000
    C411    C    0.24785   0.62105   0.86444   1.000
    H273    H    0.27310   0.63010   0.85400   1.000
    C412    C    0.24757   0.59440   0.89600   1.000
    H274    H    0.27240   0.58500   0.90700   1.000
    C413    C    0.21344   0.66388   0.81366   1.000
    C414    C    0.18654   0.66185   0.78239   1.000
    H275    H    0.16590   0.64180   0.78260   1.000
    C415    C    0.24688   0.72170   0.78245   1.000
    C416    C    0.24293   0.69403   0.81330   1.000
    H276    H    0.26120   0.69570   0.83520   1.000
    C417    C    0.08670   0.48990   0.96760   1.000
    H277    H    0.10080   0.48330   0.94450   1.000
    C418    C    0.04478   0.48940   0.96680   1.000
    H278    H    0.03130   0.48180   0.94370   1.000
    C419    C    0.08530   0.52970   0.98490   1.000
    H279    H    0.09920   0.54860   0.97010   1.000
    C420    C    0.04390   0.53190   0.98570   1.000
    H280    H    0.03040   0.55300   0.97370   1.000
    O57     O    0.95862   0.67651   0.45857   1.000
    O58     O    0.95888   0.74443   0.45896   1.000
    C421    C    0.94738   0.71057   0.44593   1.000
    C422    C    0.91878   0.71082   0.41180   1.000
    C423    C    0.90479   0.67516   0.39524   1.000
    H281    H    0.91350   0.65000   0.40600   1.000
    C424    C    0.87838   0.67571   0.36329   1.000
    H282    H    0.86930   0.65090   0.35200   1.000
    C425    C    0.86490   0.71218   0.34744   1.000
    C426    C    0.87895   0.74785   0.36444   1.000
    H283    H    0.86990   0.77310   0.35400   1.000
    C427    C    0.90560   0.74757   0.39600   1.000
    H284    H    0.91500   0.77240   0.40700   1.000
    C428    C    0.83612   0.71344   0.31366   1.000
    C429    C    0.83815   0.68654   0.28239   1.000
    H285    H    0.85820   0.66590   0.28260   1.000
    C430    C    0.77830   0.74688   0.28245   1.000
    C431    C    0.80597   0.74293   0.31330   1.000
    H286    H    0.80430   0.76120   0.33520   1.000
    C432    C    0.01010   0.58670   0.46760   1.000
    H287    H    0.01670   0.60080   0.44450   1.000
    C433    C    0.01060   0.54478   0.46680   1.000
    H288    H    0.01820   0.53130   0.44370   1.000
    C434    C    0.97030   0.58530   0.48490   1.000
    H289    H    0.95140   0.59920   0.47010   1.000
    C435    C    0.96810   0.54390   0.48570   1.000
    H290    H    0.94700   0.53040   0.47370   1.000
    O59     O    0.45862   0.17651   0.95857   1.000
    O60     O    0.45888   0.24443   0.95896   1.000
    C436    C    0.44738   0.21057   0.94593   1.000
    C437    C    0.41878   0.21082   0.91180   1.000
    C438    C    0.40479   0.17516   0.89524   1.000
    H291    H    0.41350   0.15000   0.90600   1.000
    C439    C    0.37838   0.17571   0.86329   1.000
    H292    H    0.36930   0.15090   0.85200   1.000
    C440    C    0.36490   0.21218   0.84744   1.000
    C441    C    0.37895   0.24785   0.86444   1.000
    H293    H    0.36990   0.27310   0.85400   1.000
    C442    C    0.40560   0.24757   0.89600   1.000
    H294    H    0.41500   0.27240   0.90700   1.000
    C443    C    0.33612   0.21344   0.81366   1.000
    C444    C    0.33815   0.18654   0.78239   1.000
    H295    H    0.35820   0.16590   0.78260   1.000
    C445    C    0.27830   0.24688   0.78245   1.000
    C446    C    0.30597   0.24293   0.81330   1.000
    H296    H    0.30430   0.26120   0.83520   1.000
    C447    C    0.51010   0.08670   0.96760   1.000
    H297    H    0.51670   0.10080   0.94450   1.000
    C448    C    0.51060   0.04478   0.96680   1.000
    H298    H    0.51820   0.03130   0.94370   1.000
    C449    C    0.47030   0.08530   0.98490   1.000
    H299    H    0.45140   0.09920   0.97010   1.000
    C450    C    0.46810   0.04390   0.98570   1.000
    H300    H    0.44700   0.03040   0.97370   1.000
    O61     O    0.04138   0.32349   0.45857   1.000
    O62     O    0.04112   0.25557   0.45896   1.000
    C451    C    0.05262   0.28943   0.44593   1.000
    C452    C    0.08122   0.28918   0.41180   1.000
    C453    C    0.09521   0.32484   0.39524   1.000
    H301    H    0.08650   0.35000   0.40600   1.000
    C454    C    0.12162   0.32429   0.36329   1.000
    H302    H    0.13070   0.34910   0.35200   1.000
    C455    C    0.13510   0.28782   0.34744   1.000
    C456    C    0.12105   0.25215   0.36444   1.000
    H303    H    0.13010   0.22690   0.35400   1.000
    C457    C    0.09440   0.25243   0.39600   1.000
    H304    H    0.08500   0.22760   0.40700   1.000
    C458    C    0.16388   0.28656   0.31366   1.000
    C459    C    0.16185   0.31346   0.28239   1.000
    H305    H    0.14180   0.33410   0.28260   1.000
    C460    C    0.22170   0.25312   0.28245   1.000
    C461    C    0.19403   0.25707   0.31330   1.000
    H306    H    0.19570   0.23880   0.33520   1.000
    C462    C    0.98990   0.41330   0.46760   1.000
    H307    H    0.98330   0.39920   0.44450   1.000
    C463    C    0.98940   0.45522   0.46680   1.000
    H308    H    0.98180   0.46870   0.44370   1.000
    C464    C    0.02970   0.41470   0.48490   1.000
    H309    H    0.04860   0.40080   0.47010   1.000
    C465    C    0.03190   0.45610   0.48570   1.000
    H310    H    0.05300   0.46960   0.47370   1.000
    O63     O    0.54138   0.82349   0.95857   1.000
    O64     O    0.54112   0.75557   0.95896   1.000
    C466    C    0.55262   0.78943   0.94593   1.000
    C467    C    0.58122   0.78918   0.91180   1.000
    C468    C    0.59521   0.82484   0.89524   1.000
    H311    H    0.58650   0.85000   0.90600   1.000
    C469    C    0.62162   0.82429   0.86329   1.000
    H312    H    0.63070   0.84910   0.85200   1.000
    C470    C    0.63510   0.78782   0.84744   1.000
    C471    C    0.62105   0.75215   0.86444   1.000
    H313    H    0.63010   0.72690   0.85400   1.000
    C472    C    0.59440   0.75243   0.89600   1.000
    H314    H    0.58500   0.72760   0.90700   1.000
    C473    C    0.66388   0.78656   0.81366   1.000
    C474    C    0.66185   0.81346   0.78239   1.000
    H315    H    0.64180   0.83410   0.78260   1.000
    C475    C    0.72170   0.75312   0.78245   1.000
    C476    C    0.69403   0.75707   0.81330   1.000
    H316    H    0.69570   0.73880   0.83520   1.000
    C477    C    0.48990   0.91330   0.96760   1.000
    H317    H    0.48330   0.89920   0.94450   1.000
    C478    C    0.48940   0.95522   0.96680   1.000
    H318    H    0.48180   0.96870   0.94370   1.000
    C479    C    0.52970   0.91470   0.98490   1.000
    H319    H    0.54860   0.90080   0.97010   1.000
    C480    C    0.53190   0.95610   0.98570   1.000
    H320    H    0.55300   0.96960   0.97370   1.000
    Cu1     Cu   0.32976   0.00000   0.50000   1.000
    Cu2     Cu   0.25185   0.00000   0.50000   1.000
    N1      N    0.39394   0.00000   0.50000   1.000
    C481    C    0.47755   0.00000   0.50000   1.000
    Cu3     Cu   0.82976   0.50000   0.00000   1.000
    Cu4     Cu   0.75185   0.50000   0.00000   1.000
    N2      N    0.89394   0.50000   0.00000   1.000
    C482    C    0.97755   0.50000   0.00000   1.000
    Cu5     Cu   0.67024   0.00000   0.50000   1.000
    Cu6     Cu   0.74815   0.00000   0.50000   1.000
    N3      N    0.60606   0.00000   0.50000   1.000
    C483    C    0.52245   0.00000   0.50000   1.000
    Cu7     Cu   0.17024   0.50000   0.00000   1.000
    Cu8     Cu   0.24815   0.50000   0.00000   1.000
    N4      N    0.10606   0.50000   0.00000   1.000
    C484    C    0.02245   0.50000   0.00000   1.000
    Cu9     Cu   0.00000   0.32976   0.50000   1.000
    Cu10    Cu   0.00000   0.25185   0.50000   1.000
    N5      N    0.00000   0.39394   0.50000   1.000
    C485    C    0.00000   0.47755   0.50000   1.000
    Cu11    Cu   0.50000   0.82976   0.00000   1.000
    Cu12    Cu   0.50000   0.75185   0.00000   1.000
    N6      N    0.50000   0.89394   0.00000   1.000
    C486    C    0.50000   0.97755   0.00000   1.000
    Cu13    Cu   0.00000   0.67024   0.50000   1.000
    Cu14    Cu   0.00000   0.74815   0.50000   1.000
    N7      N    0.00000   0.60606   0.50000   1.000
    C487    C    0.00000   0.52245   0.50000   1.000
    Cu15    Cu   0.50000   0.17024   0.00000   1.000
    Cu16    Cu   0.50000   0.24815   0.00000   1.000
    N8      N    0.50000   0.10606   0.00000   1.000
    C488    C    0.50000   0.02245   0.00000   1.000
    C489    C    0.31095   0.18905   0.25000   1.000
    C490    C    0.28061   0.21939   0.25000   1.000
    C491    C    0.68905   0.81095   0.25000   1.000
    C492    C    0.71939   0.78061   0.25000   1.000
    C493    C    0.81095   0.31095   0.25000   1.000
    C494    C    0.78061   0.28061   0.25000   1.000
    C495    C    0.18905   0.68905   0.25000   1.000
    C496    C    0.21939   0.71939   0.25000   1.000
    C497    C    0.68905   0.18905   0.75000   1.000
    C498    C    0.71939   0.21939   0.75000   1.000
    C499    C    0.31095   0.81095   0.75000   1.000
    C500    C    0.28061   0.78061   0.75000   1.000
    C501    C    0.18905   0.31095   0.75000   1.000
    C502    C    0.21939   0.28061   0.75000   1.000
    C503    C    0.81095   0.68905   0.75000   1.000
    C504    C    0.78061   0.71939   0.75000   1.000
    C505    C    0.68905   0.81095   0.75000   1.000
    C506    C    0.71939   0.78061   0.75000   1.000
    C507    C    0.18905   0.31095   0.25000   1.000
    C508    C    0.21939   0.28061   0.25000   1.000
    C509    C    0.31095   0.18905   0.75000   1.000
    C510    C    0.28061   0.21939   0.75000   1.000
    C511    C    0.18905   0.68905   0.75000   1.000
    C512    C    0.21939   0.71939   0.75000   1.000
    C513    C    0.81095   0.31095   0.75000   1.000
    C514    C    0.78061   0.28061   0.75000   1.000
    C515    C    0.31095   0.81095   0.25000   1.000
    C516    C    0.28061   0.78061   0.25000   1.000
    C517    C    0.68905   0.18905   0.25000   1.000
    C518    C    0.71939   0.21939   0.25000   1.000
    C519    C    0.81095   0.68905   0.25000   1.000
    C520    C    0.78061   0.71939   0.25000   1.000
