# CIF file generated by openbabel 2.4.1, see http://openbabel.sf.net
data_I
_chemical_name_common 'RELLAW_clean'
_cell_length_a 16.1578
_cell_length_b 18.1039
_cell_length_c 18.807
_cell_angle_alpha 90
_cell_angle_beta 90
_cell_angle_gamma 92.615
_space_group_name_H-M_alt 'P 1'
_space_group_name_Hall 'P 1'
loop_
    _symmetry_equiv_pos_as_xyz
    x,y,z
loop_
    _atom_site_label
    _atom_site_type_symbol
    _atom_site_fract_x
    _atom_site_fract_y
    _atom_site_fract_z
    _atom_site_occupancy
    Zn1     Zn   0.63455   0.32766   0.49980   1.000
    Zn2     Zn   0.81421   0.35782   0.50078   1.000
    Zn3     Zn   0.63455   0.82766   0.00020   1.000
    Zn4     Zn   0.81421   0.85782   0.99922   1.000
    H1      H    0.57600   0.49500   0.65300   1.000
    H2      H    0.55800   0.58640   0.74330   1.000
    H3      H    0.62900   0.66650   0.83580   1.000
    H4      H    0.87300   0.66460   0.87300   1.000
    H5      H    0.88500   0.56880   0.78880   1.000
    H6      H    0.82540   0.48700   0.69280   1.000
    H7      H    0.58500   0.46920   0.32250   1.000
    H8      H    0.57000   0.54970   0.22880   1.000
    H9      H    0.63140   0.64860   0.15040   1.000
    H10     H    0.86300   0.73290   0.19130   1.000
    H11     H    0.88400   0.64720   0.28170   1.000
    H12     H    0.82170   0.54860   0.35870   1.000
    H13     H    0.95590   0.30770   0.57580   1.000
    H14     H    0.10200   0.31200   0.57400   1.000
    H15     H    0.22600   0.43100   0.46760   1.000
    H16     H    0.22500   0.28910   0.53140   1.000
    H17     H    0.34400   0.22800   0.53200   1.000
    H18     H    0.48500   0.22400   0.52500   1.000
    H19     H    0.50400   0.42860   0.48090   1.000
    H20     H    0.37100   0.43880   0.48500   1.000
    H21     H    0.08570   0.45740   0.41580   1.000
    H22     H    0.94630   0.44470   0.42090   1.000
    H23     H    0.57600   0.99500   0.84700   1.000
    H24     H    0.55800   0.08640   0.75670   1.000
    H25     H    0.62900   0.16650   0.66420   1.000
    H26     H    0.87300   0.16460   0.62700   1.000
    H27     H    0.88500   0.06880   0.71120   1.000
    H28     H    0.82540   0.98700   0.80720   1.000
    H29     H    0.58500   0.96920   0.17750   1.000
    H30     H    0.57000   0.04970   0.27120   1.000
    H31     H    0.63140   0.14860   0.34960   1.000
    H32     H    0.86300   0.23290   0.30870   1.000
    H33     H    0.88400   0.14720   0.21830   1.000
    H34     H    0.82170   0.04860   0.14130   1.000
    H35     H    0.95590   0.80770   0.92420   1.000
    H36     H    0.10200   0.81200   0.92600   1.000
    H37     H    0.22600   0.93100   0.03240   1.000
    H38     H    0.22500   0.78910   0.96860   1.000
    H39     H    0.34400   0.72800   0.96800   1.000
    H40     H    0.48500   0.72400   0.97500   1.000
    H41     H    0.50400   0.92860   0.01910   1.000
    H42     H    0.37100   0.93880   0.01500   1.000
    H43     H    0.08570   0.95740   0.08420   1.000
    H44     H    0.94630   0.94470   0.07910   1.000
    C1      C    0.71177   0.43349   0.60408   1.000
    C2      C    0.70257   0.48641   0.66462   1.000
    C3      C    0.62339   0.51299   0.68047   1.000
    C4      C    0.61455   0.56406   0.73251   1.000
    C5      C    0.68437   0.59159   0.77185   1.000
    C6      C    0.67820   0.64721   0.82376   1.000
    C7      C    0.74697   0.67490   0.85965   1.000
    C8      C    0.82483   0.64501   0.84667   1.000
    C9      C    0.83279   0.59054   0.79749   1.000
    C10     C    0.76335   0.56316   0.75770   1.000
    C11     C    0.77015   0.51023   0.70342   1.000
    C12     C    0.73899   0.73659   0.91201   1.000
    C13     C    0.71190   0.44572   0.40852   1.000
    C14     C    0.70381   0.50138   0.35042   1.000
    C15     C    0.62872   0.50363   0.31213   1.000
    C16     C    0.62072   0.55100   0.25725   1.000
    C17     C    0.68718   0.60052   0.23733   1.000
    C18     C    0.68090   0.65094   0.18043   1.000
    C19     C    0.74597   0.69825   0.16249   1.000
    C20     C    0.82090   0.69646   0.20073   1.000
    C21     C    0.82957   0.64874   0.25565   1.000
    C22     C    0.76271   0.59950   0.27585   1.000
    C23     C    0.76920   0.54856   0.33225   1.000
    C24     C    0.73635   0.75133   0.10229   1.000
    C25     C    0.98416   0.33613   0.54469   1.000
    C26     C    0.06942   0.33950   0.54394   1.000
    C27     C    0.11141   0.38371   0.49398   1.000
    C28     C    0.20185   0.38621   0.48881   1.000
    C29     C    0.24771   0.33278   0.51264   1.000
    C30     C    0.33810   0.33165   0.50830   1.000
    C31     C    0.37709   0.26615   0.52090   1.000
    C32     C    0.46177   0.26462   0.51641   1.000
    C33     C    0.47193   0.38763   0.48901   1.000
    C34     C    0.38830   0.39366   0.49225   1.000
    C35     C    0.06393   0.42522   0.44928   1.000
    C36     C    0.97881   0.41842   0.45301   1.000
    C37     C    0.71177   0.93349   0.89592   1.000
    C38     C    0.70257   0.98641   0.83538   1.000
    C39     C    0.62339   0.01299   0.81953   1.000
    C40     C    0.61455   0.06406   0.76749   1.000
    C41     C    0.68437   0.09159   0.72815   1.000
    C42     C    0.67820   0.14721   0.67624   1.000
    C43     C    0.74697   0.17490   0.64035   1.000
    C44     C    0.82483   0.14501   0.65333   1.000
    C45     C    0.83279   0.09054   0.70251   1.000
    C46     C    0.76335   0.06316   0.74230   1.000
    C47     C    0.77015   0.01023   0.79658   1.000
    C48     C    0.73899   0.23659   0.58799   1.000
    C49     C    0.71190   0.94572   0.09148   1.000
    C50     C    0.70381   0.00138   0.14958   1.000
    C51     C    0.62872   0.00363   0.18787   1.000
    C52     C    0.62072   0.05100   0.24275   1.000
    C53     C    0.68718   0.10052   0.26267   1.000
    C54     C    0.68090   0.15094   0.31957   1.000
    C55     C    0.74597   0.19825   0.33751   1.000
    C56     C    0.82090   0.19646   0.29927   1.000
    C57     C    0.82957   0.14874   0.24435   1.000
    C58     C    0.76271   0.09950   0.22415   1.000
    C59     C    0.76920   0.04856   0.16775   1.000
    C60     C    0.73635   0.25133   0.39771   1.000
    C61     C    0.98416   0.83613   0.95531   1.000
    C62     C    0.06942   0.83950   0.95606   1.000
    C63     C    0.11141   0.88371   0.00602   1.000
    C64     C    0.20185   0.88621   0.01119   1.000
    C65     C    0.24771   0.83278   0.98736   1.000
    C66     C    0.33810   0.83165   0.99170   1.000
    C67     C    0.37709   0.76615   0.97910   1.000
    C68     C    0.46177   0.76462   0.98359   1.000
    C69     C    0.47193   0.88763   0.01099   1.000
    C70     C    0.38830   0.89366   0.00775   1.000
    C71     C    0.06393   0.92522   0.05072   1.000
    C72     C    0.97881   0.91842   0.04699   1.000
    N1      N    0.93867   0.37381   0.49922   1.000
    N2      N    0.50949   0.32408   0.50069   1.000
    N3      N    0.93867   0.87381   0.00078   1.000
    N4      N    0.50949   0.82408   0.99931   1.000
    O1      O    0.64701   0.41462   0.56994   1.000
    O2      O    0.78319   0.41233   0.59103   1.000
    O3      O    0.80434   0.76161   0.94138   1.000
    O4      O    0.66743   0.75930   0.92152   1.000
    O5      O    0.78037   0.44533   0.44100   1.000
    O6      O    0.64997   0.40350   0.42020   1.000
    O7      O    0.66772   0.75007   0.07086   1.000
    O8      O    0.79828   0.79387   0.08826   1.000
    O9      O    0.64701   0.91462   0.93006   1.000
    O10     O    0.78319   0.91233   0.90897   1.000
    O11     O    0.80434   0.26161   0.55862   1.000
    O12     O    0.66743   0.25930   0.57848   1.000
    O13     O    0.78037   0.94533   0.05900   1.000
    O14     O    0.64997   0.90350   0.07980   1.000
    O15     O    0.66772   0.25007   0.42914   1.000
    O16     O    0.79828   0.29387   0.41174   1.000
    Zn5     Zn   0.36545   0.17234   0.99980   1.000
    Zn6     Zn   0.18579   0.14217   0.00078   1.000
    Zn7     Zn   0.36545   0.67234   0.50020   1.000
    Zn8     Zn   0.18579   0.64217   0.49922   1.000
    H45     H    0.42400   0.00500   0.15300   1.000
    H46     H    0.44200   0.91360   0.24330   1.000
    H47     H    0.37100   0.83350   0.33580   1.000
    H48     H    0.12700   0.83540   0.37300   1.000
    H49     H    0.11500   0.93120   0.28880   1.000
    H50     H    0.17460   0.01300   0.19280   1.000
    H51     H    0.41500   0.03080   0.82250   1.000
    H52     H    0.43000   0.95030   0.72880   1.000
    H53     H    0.36860   0.85140   0.65040   1.000
    H54     H    0.13700   0.76710   0.69130   1.000
    H55     H    0.11600   0.85280   0.78170   1.000
    H56     H    0.17830   0.95140   0.85870   1.000
    H57     H    0.04410   0.19230   0.07580   1.000
    H58     H    0.89800   0.18800   0.07400   1.000
    H59     H    0.77400   0.06900   0.96760   1.000
    H60     H    0.77500   0.21090   0.03140   1.000
    H61     H    0.65600   0.27200   0.03200   1.000
    H62     H    0.51500   0.27600   0.02500   1.000
    H63     H    0.49600   0.07140   0.98090   1.000
    H64     H    0.62900   0.06120   0.98500   1.000
    H65     H    0.91430   0.04260   0.91580   1.000
    H66     H    0.05370   0.05530   0.92090   1.000
    H67     H    0.42400   0.50500   0.34700   1.000
    H68     H    0.44200   0.41360   0.25670   1.000
    H69     H    0.37100   0.33350   0.16420   1.000
    H70     H    0.12700   0.33540   0.12700   1.000
    H71     H    0.11500   0.43120   0.21120   1.000
    H72     H    0.17460   0.51300   0.30720   1.000
    H73     H    0.41500   0.53080   0.67750   1.000
    H74     H    0.43000   0.45030   0.77120   1.000
    H75     H    0.36860   0.35140   0.84960   1.000
    H76     H    0.13700   0.26710   0.80870   1.000
    H77     H    0.11600   0.35280   0.71830   1.000
    H78     H    0.17830   0.45140   0.64130   1.000
    H79     H    0.04410   0.69230   0.42420   1.000
    H80     H    0.89800   0.68800   0.42600   1.000
    H81     H    0.77400   0.56900   0.53240   1.000
    H82     H    0.77500   0.71090   0.46860   1.000
    H83     H    0.65600   0.77200   0.46800   1.000
    H84     H    0.51500   0.77600   0.47500   1.000
    H85     H    0.49600   0.57140   0.51910   1.000
    H86     H    0.62900   0.56120   0.51500   1.000
    H87     H    0.91430   0.54260   0.58420   1.000
    H88     H    0.05370   0.55530   0.57910   1.000
    C73     C    0.28823   0.06651   0.10408   1.000
    C74     C    0.29743   0.01359   0.16462   1.000
    C75     C    0.37661   0.98701   0.18047   1.000
    C76     C    0.38545   0.93594   0.23251   1.000
    C77     C    0.31563   0.90841   0.27185   1.000
    C78     C    0.32180   0.85279   0.32376   1.000
    C79     C    0.25303   0.82510   0.35965   1.000
    C80     C    0.17517   0.85499   0.34667   1.000
    C81     C    0.16721   0.90946   0.29749   1.000
    C82     C    0.23665   0.93684   0.25770   1.000
    C83     C    0.22985   0.98977   0.20342   1.000
    C84     C    0.26101   0.76341   0.41201   1.000
    C85     C    0.28810   0.05428   0.90852   1.000
    C86     C    0.29619   0.99862   0.85042   1.000
    C87     C    0.37128   0.99637   0.81213   1.000
    C88     C    0.37928   0.94900   0.75725   1.000
    C89     C    0.31282   0.89948   0.73733   1.000
    C90     C    0.31910   0.84906   0.68043   1.000
    C91     C    0.25403   0.80175   0.66249   1.000
    C92     C    0.17910   0.80354   0.70073   1.000
    C93     C    0.17043   0.85126   0.75565   1.000
    C94     C    0.23729   0.90050   0.77585   1.000
    C95     C    0.23080   0.95144   0.83225   1.000
    C96     C    0.26365   0.74867   0.60229   1.000
    C97     C    0.01584   0.16387   0.04469   1.000
    C98     C    0.93058   0.16050   0.04394   1.000
    C99     C    0.88859   0.11629   0.99398   1.000
    C100    C    0.79815   0.11379   0.98881   1.000
    C101    C    0.75229   0.16722   0.01264   1.000
    C102    C    0.66190   0.16835   0.00830   1.000
    C103    C    0.62291   0.23385   0.02090   1.000
    C104    C    0.53823   0.23538   0.01641   1.000
    C105    C    0.52807   0.11237   0.98901   1.000
    C106    C    0.61170   0.10634   0.99225   1.000
    C107    C    0.93607   0.07478   0.94928   1.000
    C108    C    0.02119   0.08158   0.95301   1.000
    C109    C    0.28823   0.56651   0.39592   1.000
    C110    C    0.29743   0.51359   0.33538   1.000
    C111    C    0.37661   0.48701   0.31953   1.000
    C112    C    0.38545   0.43594   0.26749   1.000
    C113    C    0.31563   0.40841   0.22815   1.000
    C114    C    0.32180   0.35279   0.17624   1.000
    C115    C    0.25303   0.32510   0.14035   1.000
    C116    C    0.17517   0.35499   0.15333   1.000
    C117    C    0.16721   0.40946   0.20251   1.000
    C118    C    0.23665   0.43684   0.24230   1.000
    C119    C    0.22985   0.48977   0.29658   1.000
    C120    C    0.26101   0.26341   0.08799   1.000
    C121    C    0.28810   0.55428   0.59148   1.000
    C122    C    0.29619   0.49862   0.64958   1.000
    C123    C    0.37128   0.49637   0.68787   1.000
    C124    C    0.37928   0.44900   0.74275   1.000
    C125    C    0.31282   0.39948   0.76267   1.000
    C126    C    0.31910   0.34906   0.81957   1.000
    C127    C    0.25403   0.30175   0.83751   1.000
    C128    C    0.17910   0.30354   0.79927   1.000
    C129    C    0.17043   0.35126   0.74435   1.000
    C130    C    0.23729   0.40050   0.72415   1.000
    C131    C    0.23080   0.45144   0.66775   1.000
    C132    C    0.26365   0.24867   0.89771   1.000
    C133    C    0.01584   0.66387   0.45531   1.000
    C134    C    0.93058   0.66050   0.45606   1.000
    C135    C    0.88859   0.61629   0.50602   1.000
    C136    C    0.79815   0.61379   0.51119   1.000
    C137    C    0.75229   0.66722   0.48736   1.000
    C138    C    0.66190   0.66835   0.49170   1.000
    C139    C    0.62291   0.73385   0.47910   1.000
    C140    C    0.53823   0.73538   0.48359   1.000
    C141    C    0.52807   0.61237   0.51099   1.000
    C142    C    0.61170   0.60634   0.50775   1.000
    C143    C    0.93607   0.57478   0.55072   1.000
    C144    C    0.02119   0.58158   0.54699   1.000
    N5      N    0.06133   0.12619   0.99922   1.000
    N6      N    0.49051   0.17592   0.00069   1.000
    N7      N    0.06133   0.62619   0.50078   1.000
    N8      N    0.49051   0.67592   0.49931   1.000
    O17     O    0.35299   0.08538   0.06994   1.000
    O18     O    0.21681   0.08767   0.09103   1.000
    O19     O    0.19566   0.73839   0.44138   1.000
    O20     O    0.33257   0.74070   0.42152   1.000
    O21     O    0.21963   0.05467   0.94100   1.000
    O22     O    0.35003   0.09650   0.92020   1.000
    O23     O    0.33228   0.74993   0.57086   1.000
    O24     O    0.20172   0.70613   0.58826   1.000
    O25     O    0.35299   0.58538   0.43006   1.000
    O26     O    0.21681   0.58767   0.40897   1.000
    O27     O    0.19566   0.23839   0.05862   1.000
    O28     O    0.33257   0.24070   0.07848   1.000
    O29     O    0.21963   0.55467   0.55900   1.000
    O30     O    0.35003   0.59650   0.57980   1.000
    O31     O    0.33228   0.24993   0.92914   1.000
    O32     O    0.20172   0.20613   0.91174   1.000
