data_functionalizedCrystal
_audit_creation_method	'EQeq! by Chris Wilmer'
_symmetry_space_group_name_H-M	'P1'
_symmetry_Int_Tables_number	1
_symmetry_cell_setting	triclinic
loop_
_symmetry_equiv_pos_as_xyz
  x,y,z
_cell_length_a	7.199
_cell_length_b	7.569
_cell_length_c	9.541
_cell_angle_alpha	90
_cell_angle_beta	100.3
_cell_angle_gamma	90
loop_
_atom_site_label
_atom_site_type_symbol
_atom_site_fract_x
_atom_site_fract_y
_atom_site_fract_z
_atom_site_charge
Mof_Cd	Cd	-0	0	-0	0.234
Mof_Ni	Ni	0.5	0.5	-0	0.999
Mof_H 	H 	0.00814	0.1161	0.28422	0.055
Mof_H 	H 	0.66997	0.1161	0.20155	-0.002
Mof_H 	H 	0.791	0.1161	0.45835	0.035
Mof_H 	H 	0.44535	0.1161	0.37177	0.029
Mof_H 	H 	0.99186	0.1161	0.71578	0.077
Mof_H 	H 	0.33003	0.1161	0.79845	0.051
Mof_H 	H 	0.209	0.1161	0.54165	0.032
Mof_H 	H 	0.55465	0.1161	0.62823	0.038
Mof_H 	H 	0.99186	0.8839	0.71578	0.057
Mof_H 	H 	0.33003	0.8839	0.79845	0.033
Mof_H 	H 	0.209	0.8839	0.54165	0.015
Mof_H 	H 	0.55465	0.8839	0.62823	0.019
Mof_H 	H 	0.00814	0.8839	0.28422	0.038
Mof_H 	H 	0.66997	0.8839	0.20155	-0.021
Mof_H 	H 	0.791	0.8839	0.45835	0.017
Mof_H 	H 	0.44535	0.8839	0.37177	0.011
Mof_C 	C 	0.665	0.6732	0.9582	-0.142
Mof_C 	C 	0.335	0.6732	0.0418	-0.317
Mof_C 	C 	0.335	0.3268	0.0418	-0.315
Mof_C 	C 	0.665	0.3268	0.9582	-0.138
Mof_C 	C 	0.7405	0	0.2523	0.013
Mof_C 	C 	0.7214	6.16895e-33	0.4068	-0.068
Mof_C 	C 	0.514	-6.16895e-33	0.4242	-0.038
Mof_C 	C 	0.2595	0	0.7477	0.003
Mof_C 	C 	0.2786	0	0.5932	-0.059
Mof_C 	C 	0.486	0	0.5758	-0.046
Mof_N 	N 	0.7687	0.7789	0.9364	-0.057
Mof_N 	N 	0.2313	0.7789	0.0636	-0.096
Mof_N 	N 	0.2313	0.2211	0.0636	-0.087
Mof_N 	N 	0.7687	0.2211	0.9364	-0.046
Mof_N 	N 	0.9406	3.08448e-33	0.2308	-0.176
Mof_N 	N 	0.0594	0	0.7692	-0.148
_end
