data_functionalizedCrystal
_audit_creation_method	'EQeq! by Chris Wilmer'
_symmetry_space_group_name_H-M	'P1'
_symmetry_Int_Tables_number	1
_symmetry_cell_setting	triclinic
loop_
_symmetry_equiv_pos_as_xyz
  x,y,z
_cell_length_a	18.8605
_cell_length_b	18.8605
_cell_length_c	16.6183
_cell_angle_alpha	90
_cell_angle_beta	90
_cell_angle_gamma	120
loop_
_atom_site_label
_atom_site_type_symbol
_atom_site_fract_x
_atom_site_fract_y
_atom_site_fract_z
_atom_site_charge
Mof_N 	N 	0.6322	0.4348	0.6636	-6.913
Mof_N 	N 	0.6278	0.4902	0.6139	-5.987
Mof_C 	C 	0.5945	0.532	0.5544	-22.618
Mof_H 	H 	0.6469	0.5663	0.5741	11.935
Mof_O 	O 	0.6542	0.4615	0.6619	10.609
Mof_H 	H 	0.5925	0.6095	0.4766	-32.729
Mof_N 	N 	0.5652	0.1974	0.6636	0.01
Mof_N 	N 	0.5098	0.1376	0.6139	0.171
Mof_C 	C 	0.468	0.0625	0.5544	1.297
Mof_H 	H 	0.4337	0.0806	0.5741	-0.643
Mof_O 	O 	0.5385	0.1927	0.6619	-0.966
Mof_H 	H 	0.3905	0.983	0.4766	2.061
Mof_N 	N 	0.8026	0.3678	0.6636	-1.912
Mof_N 	N 	0.8624	0.3722	0.6139	-1.853
Mof_C 	C 	0.9375	0.4055	0.5544	-6.769
Mof_H 	H 	0.9194	0.3531	0.5741	3.624
Mof_O 	O 	0.8073	0.3458	0.6619	2.725
Mof_H 	H 	0.017	0.4075	0.4766	-9.764
Mof_N 	N 	0.3678	0.5652	0.1636	-2.028
Mof_N 	N 	0.3722	0.5098	0.1139	-1.809
Mof_C 	C 	0.4055	0.468	0.0544	-6.599
Mof_H 	H 	0.3531	0.4337	0.0741	3.503
Mof_O 	O 	0.3458	0.5385	0.1619	2.738
Mof_H 	H 	0.4075	0.3905	0.9766	-9.423
Mof_N 	N 	0.4348	0.8026	0.1636	-0.462
Mof_N 	N 	0.4902	0.8624	0.1139	-0.354
Mof_C 	C 	0.532	0.9375	0.0544	-0.828
Mof_H 	H 	0.5663	0.9194	0.0741	0.484
Mof_O 	O 	0.4615	0.8073	0.1619	0.147
Mof_H 	H 	0.6095	0.017	0.9766	-1.098
Mof_N 	N 	0.1974	0.6322	0.1636	2.128
Mof_N 	N 	0.1376	0.6278	0.1139	1.816
Mof_C 	C 	0.0625	0.5945	0.0544	7.325
Mof_H 	H 	0.0806	0.6469	0.0741	-3.823
Mof_O 	O 	0.1927	0.6542	0.1619	-4.044
Mof_H 	H 	0.983	0.5925	0.9766	10.864
Mof_N 	N 	0.4348	0.6322	0.3364	-6.76
Mof_N 	N 	0.4902	0.6278	0.3861	-5.959
Mof_C 	C 	0.532	0.5945	0.4456	-22.624
Mof_H 	H 	0.5663	0.6469	0.4259	11.937
Mof_O 	O 	0.4615	0.6542	0.3381	10.502
Mof_H 	H 	0.6095	0.5925	0.5234	-32.731
Mof_N 	N 	0.1974	0.5652	0.3364	-2.412
Mof_N 	N 	0.1376	0.5098	0.3861	-1.94
Mof_C 	C 	0.0625	0.468	0.4456	-6.906
Mof_H 	H 	0.0806	0.4337	0.4259	3.67
Mof_O 	O 	0.1927	0.5385	0.3381	3.079
Mof_H 	H 	0.983	0.3905	0.5234	-9.853
Mof_N 	N 	0.3678	0.8026	0.3364	0.365
Mof_N 	N 	0.3722	0.8624	0.3861	0.226
Mof_C 	C 	0.4055	0.9375	0.4456	1.55
Mof_H 	H 	0.3531	0.9194	0.4259	-0.736
Mof_O 	O 	0.3458	0.8073	0.3381	-1.226
Mof_H 	H 	0.4075	0.017	0.5234	2.218
Mof_N 	N 	0.5652	0.3678	0.8364	-2.174
Mof_N 	N 	0.5098	0.3722	0.8861	-1.843
Mof_C 	C 	0.468	0.4055	0.9456	-6.446
Mof_H 	H 	0.4337	0.3531	0.9259	3.443
Mof_O 	O 	0.5385	0.3458	0.8381	2.83
Mof_H 	H 	0.3905	0.4075	0.0234	-9.335
Mof_N 	N 	0.8026	0.4348	0.8364	2.002
Mof_N 	N 	0.8624	0.4902	0.8861	1.781
Mof_C 	C 	0.9375	0.532	0.9456	7.605
Mof_H 	H 	0.9194	0.5663	0.9259	-3.934
Mof_O 	O 	0.8073	0.4615	0.8381	-3.965
Mof_H 	H 	0.017	0.6095	0.0234	11.045
Mof_N 	N 	0.6322	0.1974	0.8364	-0.169
Mof_N 	N 	0.6278	0.1376	0.8861	-0.296
Mof_C 	C 	0.5945	0.0625	0.9456	-0.954
Mof_H 	H 	0.6469	0.0806	0.9259	0.537
Mof_O 	O 	0.6542	0.1927	0.8381	-0.055
Mof_H 	H 	0.5925	0.983	0.0234	-1.182
Mof_N 	N 	0.3678	0.5652	0.3364	-6.913
Mof_N 	N 	0.3722	0.5098	0.3861	-5.987
Mof_C 	C 	0.4055	0.468	0.4456	-22.618
Mof_H 	H 	0.3531	0.4337	0.4259	11.937
Mof_O 	O 	0.3458	0.5385	0.3381	10.606
Mof_H 	H 	0.4075	0.3905	0.5234	-32.725
Mof_N 	N 	0.4348	0.8026	0.3364	0.03
Mof_N 	N 	0.4902	0.8624	0.3861	0.164
Mof_C 	C 	0.532	0.9375	0.4456	1.559
Mof_H 	H 	0.5663	0.9194	0.4259	-0.745
Mof_O 	O 	0.4615	0.8073	0.3381	-0.991
Mof_H 	H 	0.6095	0.017	0.5234	2.22
Mof_N 	N 	0.1974	0.6322	0.3364	-1.925
Mof_N 	N 	0.1376	0.6278	0.3861	-1.85
Mof_C 	C 	0.0625	0.5945	0.4456	-6.927
Mof_H 	H 	0.0806	0.6469	0.4259	3.682
Mof_O 	O 	0.1927	0.6542	0.3381	2.741
Mof_H 	H 	0.983	0.5925	0.5234	-9.865
Mof_N 	N 	0.6322	0.4348	0.8364	-2.019
Mof_N 	N 	0.6278	0.4902	0.8861	-1.815
Mof_C 	C 	0.5945	0.532	0.9456	-6.456
Mof_H 	H 	0.6469	0.5663	0.9259	3.445
Mof_O 	O 	0.6542	0.4615	0.8381	2.725
Mof_H 	H 	0.5925	0.6095	0.0234	-9.341
Mof_N 	N 	0.5652	0.1974	0.8364	-0.471
Mof_N 	N 	0.5098	0.1376	0.8861	-0.351
Mof_C 	C 	0.468	0.0625	0.9456	-0.95
Mof_H 	H 	0.4337	0.0806	0.9259	0.531
Mof_O 	O 	0.5385	0.1927	0.8381	0.157
Mof_H 	H 	0.3905	0.983	0.0234	-1.175
Mof_N 	N 	0.8026	0.3678	0.8364	2.15
Mof_N 	N 	0.8624	0.3722	0.8861	1.808
Mof_C 	C 	0.9375	0.4055	0.9456	7.616
Mof_H 	H 	0.9194	0.3531	0.9259	-3.934
Mof_O 	O 	0.8073	0.3458	0.8381	-4.072
Mof_H 	H 	0.017	0.4075	0.0234	11.047
Mof_N 	N 	0.5652	0.3678	0.6636	-6.759
Mof_N 	N 	0.5098	0.3722	0.6139	-5.958
Mof_C 	C 	0.468	0.4055	0.5544	-22.624
Mof_H 	H 	0.4337	0.3531	0.5741	11.941
Mof_O 	O 	0.5385	0.3458	0.6619	10.502
Mof_H 	H 	0.3905	0.4075	0.4766	-32.726
Mof_N 	N 	0.8026	0.4348	0.6636	-2.401
Mof_N 	N 	0.8624	0.4902	0.6139	-1.944
Mof_C 	C 	0.9375	0.532	0.5544	-6.754
Mof_H 	H 	0.9194	0.5663	0.5741	3.61
Mof_O 	O 	0.8073	0.4615	0.6619	3.065
Mof_H 	H 	0.017	0.6095	0.4766	-9.761
Mof_N 	N 	0.6322	0.1974	0.6636	0.344
Mof_N 	N 	0.6278	0.1376	0.6139	0.233
Mof_C 	C 	0.5945	0.0625	0.5544	1.282
Mof_H 	H 	0.6469	0.0806	0.5741	-0.634
Mof_O 	O 	0.6542	0.1927	0.6619	-1.2
Mof_H 	H 	0.5925	0.983	0.4766	2.051
Mof_N 	N 	0.4348	0.6322	0.1636	-2.186
Mof_N 	N 	0.4902	0.6278	0.1139	-1.839
Mof_C 	C 	0.532	0.5945	0.0544	-6.601
Mof_H 	H 	0.5663	0.6469	0.0741	3.499
Mof_O 	O 	0.4615	0.6542	0.1619	2.846
Mof_H 	H 	0.6095	0.5925	0.9766	-9.433
Mof_N 	N 	0.1974	0.5652	0.1636	1.984
Mof_N 	N 	0.1376	0.5098	0.1139	1.789
Mof_C 	C 	0.0625	0.468	0.0544	7.353
Mof_H 	H 	0.0806	0.4337	0.0741	-3.836
Mof_O 	O 	0.1927	0.5385	0.1619	-3.94
Mof_H 	H 	0.983	0.3905	0.9766	10.895
Mof_N 	N 	0.3678	0.8026	0.1636	-0.16
Mof_N 	N 	0.3722	0.8624	0.1139	-0.297
Mof_C 	C 	0.4055	0.9375	0.0544	-0.85
Mof_H 	H 	0.3531	0.9194	0.0741	0.499
Mof_O 	O 	0.3458	0.8073	0.1619	-0.065
Mof_H 	H 	0.4075	0.017	0.9766	-1.116
Mof_Co	Co	0.7282	0.4564	0.75	0.773
Mof_N 	N 	0.79305	0.5861	0.75	-0.47
Mof_C 	C 	0.8794	0.7588	0.75	0.014
Mof_C 	C 	0.92585	0.8517	0.75	0.349
Mof_Co	Co	0.5436	0.2718	0.75	0.771
Mof_N 	N 	0.4139	0.20695	0.75	-0.476
Mof_C 	C 	0.2412	0.1206	0.75	0.046
Mof_C 	C 	0.1483	0.07415	0.75	0.335
Mof_Co	Co	0.7282	0.2718	0.75	1.23
Mof_N 	N 	0.79305	0.20695	0.75	-0.188
Mof_C 	C 	0.8794	0.1206	0.75	-0.004
Mof_C 	C 	0.92585	0.07415	0.75	0.355
Mof_Co	Co	0.2718	0.5436	0.25	0.773
Mof_N 	N 	0.20695	0.4139	0.25	-0.475
Mof_C 	C 	0.1206	0.2412	0.25	0.049
Mof_C 	C 	0.07415	0.1483	0.25	0.333
Mof_Co	Co	0.4564	0.7282	0.25	0.772
Mof_N 	N 	0.5861	0.79305	0.25	-0.472
Mof_C 	C 	0.7588	0.8794	0.25	0.021
Mof_C 	C 	0.8517	0.92585	0.25	0.346
Mof_Co	Co	0.2718	0.7282	0.25	1.229
Mof_N 	N 	0.20695	0.79305	0.25	-0.188
Mof_C 	C 	0.1206	0.8794	0.25	-0.008
Mof_C 	C 	0.07415	0.92585	0.25	0.356
Mof_O 	O 	0.66667	0.33333	0.75	-0.589
Mof_O 	O 	0.33333	0.66667	0.25	-0.588
Mof_C 	C 	0.55056	0.44944	0.5821	34.724
Mof_C 	C 	0.5172	0.4828	0.524	-56.916
Mof_C 	C 	0.584	0.416	0.6405	-5.084
Mof_C 	C 	0.55056	0.10112	0.5821	-2.344
Mof_C 	C 	0.5172	0.0344	0.524	3.906
Mof_C 	C 	0.584	0.168	0.6405	1.235
Mof_C 	C 	0.89888	0.44944	0.5821	10.364
Mof_C 	C 	0.9656	0.4828	0.524	-17.195
Mof_C 	C 	0.832	0.416	0.6405	-1.02
Mof_C 	C 	0.44944	0.55056	0.0821	9.913
Mof_C 	C 	0.4828	0.5172	0.024	-16.2
Mof_C 	C 	0.416	0.584	0.1405	-0.937
Mof_C 	C 	0.44944	0.89888	0.0821	1.215
Mof_C 	C 	0.4828	0.9656	0.024	-2.08
Mof_C 	C 	0.416	0.832	0.1405	0.358
Mof_C 	C 	0.10112	0.55056	0.0821	-11.665
Mof_C 	C 	0.0344	0.5172	0.024	19.267
Mof_C 	C 	0.168	0.584	0.1405	2.642
Mof_C 	C 	0.44944	0.55056	0.4179	34.724
Mof_C 	C 	0.4828	0.5172	0.476	-56.918
Mof_C 	C 	0.416	0.584	0.3595	-5.084
Mof_C 	C 	0.10112	0.55056	0.4179	10.4
Mof_C 	C 	0.0344	0.5172	0.476	-16.955
Mof_C 	C 	0.168	0.584	0.3595	-1.019
Mof_C 	C 	0.44944	0.89888	0.4179	-2.407
Mof_C 	C 	0.4828	0.9656	0.476	3.492
Mof_C 	C 	0.416	0.832	0.3595	1.234
Mof_C 	C 	0.55056	0.44944	0.9179	9.877
Mof_C 	C 	0.5172	0.4828	0.976	-16.433
Mof_C 	C 	0.584	0.416	0.8595	-0.937
Mof_C 	C 	0.89888	0.44944	0.9179	-11.731
Mof_C 	C 	0.9656	0.4828	0.976	18.843
Mof_C 	C 	0.832	0.416	0.8595	2.641
Mof_C 	C 	0.55056	0.10112	0.9179	1.241
Mof_C 	C 	0.5172	0.0344	0.976	-1.906
Mof_C 	C 	0.584	0.168	0.8595	0.359
Mof_C 	C 	0.5626	0.5626	0.5	119.311
Mof_C 	C 	0.4374	0	0.5	-7.681
Mof_C 	C 	3.48745e-17	0.4374	0.5	35.848
Mof_C 	C 	0.4374	0.4374	-0	34.241
Mof_C 	C 	0.5626	0	-0	4.267
Mof_C 	C 	-0	0.5626	-0	-39.802
Mof_C 	C 	0.4374	0.4374	0.5	119.308
Mof_C 	C 	0.5626	0	0.5	-7.673
Mof_C 	C 	-9.53917e-18	0.5626	0.5	35.857
Mof_C 	C 	0.5626	0.5626	-0	34.258
Mof_C 	C 	0.4374	0	-0	4.289
Mof_C 	C 	4.44137e-17	0.4374	-0	-39.855
Mof_H 	H 	0.80115	0.6023	0.6325	-0.322
Mof_C 	C 	0.81525	0.6305	0.6811	0.146
Mof_O 	O 	0.94035	0.8807	0.6822	-0.47
Mof_C 	C 	0.85705	0.7141	0.6784	-0.157
Mof_H 	H 	0.87055	0.7411	0.6291	0.291
Mof_H 	H 	0.3977	0.19885	0.6325	-0.238
Mof_C 	C 	0.3695	0.18475	0.6811	0.167
Mof_O 	O 	0.1193	0.05965	0.6822	-0.399
Mof_C 	C 	0.2859	0.14295	0.6784	-0.172
Mof_H 	H 	0.2589	0.12945	0.6291	0.268
Mof_H 	H 	0.80115	0.19885	0.6325	-0.01
Mof_C 	C 	0.81525	0.18475	0.6811	0.025
Mof_O 	O 	0.94035	0.05965	0.6822	-0.432
Mof_C 	C 	0.85705	0.14295	0.6784	-0.044
Mof_H 	H 	0.87055	0.12945	0.6291	0.128
Mof_H 	H 	0.19885	0.3977	0.1325	-0.029
Mof_C 	C 	0.18475	0.3695	0.1811	0.196
Mof_O 	O 	0.05965	0.1193	0.1822	-0.485
Mof_C 	C 	0.14295	0.2859	0.1784	-0.199
Mof_H 	H 	0.12945	0.2589	0.1291	0.117
Mof_H 	H 	0.6023	0.80115	0.1325	-0.114
Mof_C 	C 	0.6305	0.81525	0.1811	0.177
Mof_O 	O 	0.8807	0.94035	0.1822	-0.546
Mof_C 	C 	0.7141	0.85705	0.1784	-0.186
Mof_H 	H 	0.7411	0.87055	0.1291	0.144
Mof_H 	H 	0.19885	0.80115	0.1325	0.1
Mof_C 	C 	0.18475	0.81525	0.1811	0.036
Mof_O 	O 	0.05965	0.94035	0.1822	-0.516
Mof_C 	C 	0.14295	0.85705	0.1784	-0.06
Mof_H 	H 	0.12945	0.87055	0.1291	0.032
Mof_H 	H 	0.6023	0.80115	0.3675	-0.243
Mof_C 	C 	0.6305	0.81525	0.3189	0.163
Mof_O 	O 	0.8807	0.94035	0.3178	-0.472
Mof_C 	C 	0.7141	0.85705	0.3216	-0.168
Mof_H 	H 	0.7411	0.87055	0.3709	0.247
Mof_H 	H 	0.19885	0.3977	0.3675	-0.321
Mof_C 	C 	0.18475	0.3695	0.3189	0.152
Mof_O 	O 	0.05965	0.1193	0.3178	-0.39
Mof_C 	C 	0.14295	0.2859	0.3216	-0.164
Mof_H 	H 	0.12945	0.2589	0.3709	0.31
Mof_H 	H 	0.19885	0.80115	0.3675	-0.012
Mof_C 	C 	0.18475	0.81525	0.3189	0.025
Mof_O 	O 	0.05965	0.94035	0.3178	-0.449
Mof_C 	C 	0.14295	0.85705	0.3216	-0.045
Mof_H 	H 	0.12945	0.87055	0.3709	0.122
Mof_H 	H 	0.3977	0.19885	0.8675	-0.114
Mof_C 	C 	0.3695	0.18475	0.8189	0.18
Mof_O 	O 	0.1193	0.05965	0.8178	-0.485
Mof_C 	C 	0.2859	0.14295	0.8216	-0.19
Mof_H 	H 	0.2589	0.12945	0.8709	0.153
Mof_H 	H 	0.80115	0.6023	0.8675	-0.035
Mof_C 	C 	0.81525	0.6305	0.8189	0.19
Mof_O 	O 	0.94035	0.8807	0.8178	-0.573
Mof_C 	C 	0.85705	0.7141	0.8216	-0.192
Mof_H 	H 	0.87055	0.7411	0.8709	0.088
Mof_H 	H 	0.80115	0.19885	0.8675	0.098
Mof_C 	C 	0.81525	0.18475	0.8189	0.036
Mof_O 	O 	0.94035	0.05965	0.8178	-0.508
Mof_C 	C 	0.85705	0.14295	0.8216	-0.061
Mof_H 	H 	0.87055	0.12945	0.8709	0.028
Mof_Co	Co	-9.86181e-33	-9.86181e-33	0.6815	1.144
Mof_Co	Co	-0	-2.46545e-33	0.1815	1.111
Mof_Co	Co	-4.93091e-33	-4.93091e-33	0.3185	1.147
Mof_Co	Co	-9.86181e-33	-1.97236e-32	0.8185	1.105
Mof_C 	C 	0.7524	0.6298	0.75	-0.146
Mof_H 	H 	0.6955	0.6018	0.75	-0.161
Mof_C 	C 	0.7947	0.7144	0.75	0.098
Mof_H 	H 	0.7656	0.7422	0.75	0.117
Mof_C 	C 	0.3702	0.1226	0.75	-0.035
Mof_H 	H 	0.3982	0.0937	0.75	0.041
Mof_C 	C 	0.2856	0.0803	0.75	0.008
Mof_H 	H 	0.2578	0.0234	0.75	0.044
Mof_C 	C 	0.8774	0.2476	0.75	0.017
Mof_H 	H 	0.9063	0.3045	0.75	0.044
Mof_C 	C 	0.9197	0.2053	0.75	-0.048
Mof_H 	H 	0.9766	0.2344	0.75	0.07
Mof_C 	C 	0.2476	0.3702	0.25	-0.136
Mof_H 	H 	0.3045	0.3982	0.25	-0.159
Mof_C 	C 	0.2053	0.2856	0.25	0.082
Mof_H 	H 	0.2344	0.2578	0.25	0.141
Mof_C 	C 	0.6298	0.8774	0.25	-0.045
Mof_H 	H 	0.6018	0.9063	0.25	0.033
Mof_C 	C 	0.7144	0.9197	0.25	0.019
Mof_H 	H 	0.7422	0.9766	0.25	0.008
Mof_C 	C 	0.1226	0.7524	0.25	0.016
Mof_H 	H 	0.0937	0.6955	0.25	0.053
Mof_C 	C 	0.0803	0.7947	0.25	-0.044
Mof_H 	H 	0.0234	0.7656	0.25	0.088
Mof_C 	C 	0.6298	0.7524	0.25	-0.145
Mof_H 	H 	0.6018	0.6955	0.25	-0.159
Mof_C 	C 	0.7144	0.7947	0.25	0.096
Mof_H 	H 	0.7422	0.7656	0.25	0.125
Mof_C 	C 	0.1226	0.3702	0.25	-0.035
Mof_H 	H 	0.0937	0.3982	0.25	0.041
Mof_C 	C 	0.0803	0.2856	0.25	0.007
Mof_H 	H 	0.0234	0.2578	0.25	0.044
Mof_C 	C 	0.2476	0.8774	0.25	0.015
Mof_H 	H 	0.3045	0.9063	0.25	0.044
Mof_C 	C 	0.2053	0.9197	0.25	-0.046
Mof_H 	H 	0.2344	0.9766	0.25	0.068
Mof_C 	C 	0.3702	0.2476	0.75	-0.137
Mof_H 	H 	0.3982	0.3045	0.75	-0.162
Mof_C 	C 	0.2856	0.2053	0.75	0.083
Mof_H 	H 	0.2578	0.2344	0.75	0.135
Mof_C 	C 	0.8774	0.6298	0.75	-0.046
Mof_H 	H 	0.9063	0.6018	0.75	0.034
Mof_C 	C 	0.9197	0.7144	0.75	0.021
Mof_H 	H 	0.9766	0.7422	0.75	0.004
Mof_C 	C 	0.7524	0.1226	0.75	0.017
Mof_H 	H 	0.6955	0.0937	0.75	0.052
Mof_C 	C 	0.7947	0.0803	0.75	-0.046
Mof_H 	H 	0.7656	0.0234	0.75	0.092
_end
