data_functionalizedCrystal
_audit_creation_method	'EQeq! by Chris Wilmer'
_symmetry_space_group_name_H-M	'P1'
_symmetry_Int_Tables_number	1
_symmetry_cell_setting	triclinic
loop_
_symmetry_equiv_pos_as_xyz
  x,y,z
_cell_length_a	18.6582
_cell_length_b	18.6582
_cell_length_c	18.6582
_cell_angle_alpha	60
_cell_angle_beta	60
_cell_angle_gamma	60
loop_
_atom_site_label
_atom_site_type_symbol
_atom_site_fract_x
_atom_site_fract_y
_atom_site_fract_z
_atom_site_charge
Mof_Cu	Cu	0.57012	0.42988	-0	0.8
Mof_Cu	Cu	0.42988	0.57012	-0	0.8
Mof_Cu	Cu	-3.71285e-17	0	0.57012	0.697
Mof_Cu	Cu	1.23762e-17	0	0.42988	0.684
Mof_Cu	Cu	0.57012	0	-0	0.697
Mof_Cu	Cu	0.42988	0	-0	0.684
Mof_Cu	Cu	-1.11385e-16	0.57012	0.42988	0.8
Mof_Cu	Cu	-1.11385e-16	0.42988	0.57012	0.8
Mof_Cu	Cu	0.57012	0	0.42988	0.8
Mof_Cu	Cu	0.42988	0	0.57012	0.799
Mof_Cu	Cu	-0	0.42988	-0	0.683
Mof_Cu	Cu	-4.95046e-17	0.57012	-0	0.696
Mof_H 	H 	0.2703	0.4885	0.9709	0.078
Mof_H 	H 	0.4885	0.2703	0.2703	0.011
Mof_H 	H 	0.9709	0.2703	0.2703	0.055
Mof_H 	H 	0.2703	0.9709	0.4885	0.078
Mof_H 	H 	0.2703	0.9709	0.2703	0.055
Mof_H 	H 	0.4885	0.2703	0.9709	0.078
Mof_H 	H 	0.9709	0.2703	0.4885	0.078
Mof_H 	H 	0.2703	0.4885	0.2703	0.011
Mof_H 	H 	0.2703	0.2703	0.4885	0.011
Mof_H 	H 	0.4885	0.9709	0.2703	0.078
Mof_H 	H 	0.9709	0.4885	0.2703	0.078
Mof_H 	H 	0.2703	0.2703	0.9709	0.055
Mof_H 	H 	0.5115	0.7297	0.0291	0.033
Mof_H 	H 	0.7297	0.5115	0.7297	0.095
Mof_H 	H 	0.7297	0.0291	0.7297	0.059
Mof_H 	H 	0.0291	0.7297	0.5115	0.033
Mof_H 	H 	0.0291	0.7297	0.7297	0.059
Mof_H 	H 	0.7297	0.5115	0.0291	0.033
Mof_H 	H 	0.7297	0.0291	0.5115	0.033
Mof_H 	H 	0.5115	0.7297	0.7297	0.095
Mof_H 	H 	0.7297	0.7297	0.5115	0.095
Mof_H 	H 	0.0291	0.5115	0.7297	0.033
Mof_H 	H 	0.5115	0.0291	0.7297	0.033
Mof_H 	H 	0.7297	0.7297	0.0291	0.059
Mof_C 	C 	0.2996	0.42966	0.97114	0.026
Mof_C 	C 	0.42966	0.2996	0.2996	0.062
Mof_C 	C 	0.97114	0.2996	0.2996	0.028
Mof_C 	C 	0.2996	0.97114	0.42966	0.026
Mof_C 	C 	0.2996	0.97114	0.2996	0.028
Mof_C 	C 	0.42966	0.2996	0.97114	0.026
Mof_C 	C 	0.97114	0.2996	0.42966	0.026
Mof_C 	C 	0.2996	0.42966	0.2996	0.062
Mof_C 	C 	0.2996	0.2996	0.42966	0.062
Mof_C 	C 	0.42966	0.97114	0.2996	0.026
Mof_C 	C 	0.97114	0.42966	0.2996	0.026
Mof_C 	C 	0.2996	0.2996	0.97114	0.028
Mof_C 	C 	0.57034	0.7004	0.02886	0.043
Mof_C 	C 	0.7004	0.57034	0.7004	0.016
Mof_C 	C 	0.7004	0.02886	0.7004	0.038
Mof_C 	C 	0.02886	0.7004	0.57034	0.043
Mof_C 	C 	0.02886	0.7004	0.7004	0.038
Mof_C 	C 	0.7004	0.57034	0.02886	0.043
Mof_C 	C 	0.7004	0.02886	0.57034	0.043
Mof_C 	C 	0.57034	0.7004	0.7004	0.016
Mof_C 	C 	0.7004	0.7004	0.57034	0.016
Mof_C 	C 	0.02886	0.57034	0.7004	0.043
Mof_C 	C 	0.57034	0.02886	0.7004	0.043
Mof_C 	C 	0.7004	0.7004	0.02886	0.038
Mof_C 	C 	0.3854	0.3854	0.9713	-0.051
Mof_C 	C 	0.4304	0.4304	0.97802	0.344
Mof_C 	C 	0.3854	0.3854	0.2579	-0.152
Mof_C 	C 	0.4304	0.4304	0.16118	0.363
Mof_C 	C 	0.9713	0.2579	0.3854	-0.068
Mof_C 	C 	0.97802	0.16118	0.4304	0.342
Mof_C 	C 	0.2579	0.9713	0.3854	-0.068
Mof_C 	C 	0.16118	0.97802	0.4304	0.342
Mof_C 	C 	0.3854	0.9713	0.2579	-0.068
Mof_C 	C 	0.4304	0.97802	0.16118	0.342
Mof_C 	C 	0.3854	0.2579	0.9713	-0.068
Mof_C 	C 	0.4304	0.16118	0.97802	0.342
Mof_C 	C 	0.9713	0.3854	0.3854	-0.051
Mof_C 	C 	0.97802	0.4304	0.4304	0.344
Mof_C 	C 	0.2579	0.3854	0.3854	-0.152
Mof_C 	C 	0.16118	0.4304	0.4304	0.363
Mof_C 	C 	0.3854	0.2579	0.3854	-0.152
Mof_C 	C 	0.4304	0.16118	0.4304	0.363
Mof_C 	C 	0.3854	0.9713	0.3854	-0.051
Mof_C 	C 	0.4304	0.97802	0.4304	0.344
Mof_C 	C 	0.9713	0.3854	0.2579	-0.068
Mof_C 	C 	0.97802	0.4304	0.16118	0.342
Mof_C 	C 	0.2579	0.3854	0.9713	-0.068
Mof_C 	C 	0.16118	0.4304	0.97802	0.342
Mof_C 	C 	0.6146	0.6146	0.0287	-0.121
Mof_C 	C 	0.5696	0.5696	0.02198	0.36
Mof_C 	C 	0.6146	0.6146	0.7421	-0.029
Mof_C 	C 	0.5696	0.5696	0.83882	0.342
Mof_C 	C 	0.7421	0.0287	0.6146	-0.098
Mof_C 	C 	0.83882	0.02198	0.5696	0.343
Mof_C 	C 	0.0287	0.7421	0.6146	-0.098
Mof_C 	C 	0.02198	0.83882	0.5696	0.343
Mof_C 	C 	0.0287	0.6146	0.7421	-0.098
Mof_C 	C 	0.02198	0.5696	0.83882	0.343
Mof_C 	C 	0.7421	0.6146	0.0287	-0.098
Mof_C 	C 	0.83882	0.5696	0.02198	0.343
Mof_C 	C 	0.6146	0.0287	0.6146	-0.121
Mof_C 	C 	0.5696	0.02198	0.5696	0.36
Mof_C 	C 	0.6146	0.7421	0.6146	-0.029
Mof_C 	C 	0.5696	0.83882	0.5696	0.342
Mof_C 	C 	0.7421	0.6146	0.6146	-0.029
Mof_C 	C 	0.83882	0.5696	0.5696	0.342
Mof_C 	C 	0.0287	0.6146	0.6146	-0.121
Mof_C 	C 	0.02198	0.5696	0.5696	0.36
Mof_C 	C 	0.6146	0.0287	0.7421	-0.098
Mof_C 	C 	0.5696	0.02198	0.83882	0.343
Mof_C 	C 	0.6146	0.7421	0.0287	-0.098
Mof_C 	C 	0.5696	0.83882	0.02198	0.343
Mof_O 	O 	0.50726	0.38738	0.97994	-0.292
Mof_O 	O 	0.38738	0.50726	0.12542	-0.47
Mof_O 	O 	0.97994	0.12542	0.50726	-0.333
Mof_O 	O 	0.12542	0.97994	0.38738	-0.352
Mof_O 	O 	0.50726	0.97994	0.12542	-0.333
Mof_O 	O 	0.38738	0.12542	0.97994	-0.352
Mof_O 	O 	0.97994	0.50726	0.38738	-0.292
Mof_O 	O 	0.12542	0.38738	0.50726	-0.47
Mof_O 	O 	0.50726	0.12542	0.38738	-0.47
Mof_O 	O 	0.38738	0.97994	0.50726	-0.292
Mof_O 	O 	0.97994	0.38738	0.12542	-0.352
Mof_O 	O 	0.12542	0.50726	0.97994	-0.333
Mof_O 	O 	0.61262	0.49274	0.02006	-0.46
Mof_O 	O 	0.49274	0.61262	0.87458	-0.284
Mof_O 	O 	0.87458	0.02006	0.49274	-0.364
Mof_O 	O 	0.02006	0.87458	0.61262	-0.344
Mof_O 	O 	0.02006	0.49274	0.87458	-0.364
Mof_O 	O 	0.87458	0.61262	0.02006	-0.344
Mof_O 	O 	0.49274	0.02006	0.61262	-0.46
Mof_O 	O 	0.61262	0.87458	0.49274	-0.284
Mof_O 	O 	0.87458	0.49274	0.61262	-0.284
Mof_O 	O 	0.02006	0.61262	0.49274	-0.46
Mof_O 	O 	0.61262	0.02006	0.87458	-0.344
Mof_O 	O 	0.49274	0.87458	0.02006	-0.364
Mof_O 	O 	0.49274	0.61262	0.02006	-0.46
Mof_O 	O 	0.61262	0.49274	0.87458	-0.284
Mof_O 	O 	0.02006	0.87458	0.49274	-0.364
Mof_O 	O 	0.87458	0.02006	0.61262	-0.344
Mof_O 	O 	0.49274	0.02006	0.87458	-0.364
Mof_O 	O 	0.61262	0.87458	0.02006	-0.344
Mof_O 	O 	0.02006	0.49274	0.61262	-0.46
Mof_O 	O 	0.87458	0.61262	0.49274	-0.284
Mof_O 	O 	0.49274	0.87458	0.61262	-0.284
Mof_O 	O 	0.61262	0.02006	0.49274	-0.46
Mof_O 	O 	0.02006	0.61262	0.87458	-0.344
Mof_O 	O 	0.87458	0.49274	0.02006	-0.364
Mof_O 	O 	0.38738	0.50726	0.97994	-0.292
Mof_O 	O 	0.50726	0.38738	0.12542	-0.47
Mof_O 	O 	0.12542	0.97994	0.50726	-0.333
Mof_O 	O 	0.97994	0.12542	0.38738	-0.352
Mof_O 	O 	0.97994	0.50726	0.12542	-0.333
Mof_O 	O 	0.12542	0.38738	0.97994	-0.352
Mof_O 	O 	0.50726	0.97994	0.38738	-0.292
Mof_O 	O 	0.38738	0.12542	0.50726	-0.47
Mof_O 	O 	0.12542	0.50726	0.38738	-0.47
Mof_O 	O 	0.97994	0.38738	0.50726	-0.292
Mof_O 	O 	0.38738	0.97994	0.12542	-0.352
Mof_O 	O 	0.50726	0.12542	0.97994	-0.333
_end
