data_functionalizedCrystal
_audit_creation_method	'EQeq! by Chris Wilmer'
_symmetry_space_group_name_H-M	'P1'
_symmetry_Int_Tables_number	1
_symmetry_cell_setting	triclinic
loop_
_symmetry_equiv_pos_as_xyz
  x,y,z
_cell_length_a	15.3421
_cell_length_b	15.3421
_cell_length_c	15.3421
_cell_angle_alpha	60
_cell_angle_beta	60
_cell_angle_gamma	60
loop_
_atom_site_label
_atom_site_type_symbol
_atom_site_fract_x
_atom_site_fract_y
_atom_site_fract_z
_atom_site_charge
Mof_Zn	Zn	0.15416	0.15416	0.53752	1.184
Mof_Zn	Zn	0.15416	0.15416	0.15416	1.185
Mof_Zn	Zn	0.53752	0.15416	0.15416	1.184
Mof_Zn	Zn	0.15416	0.53752	0.15416	1.184
Mof_Zn	Zn	0.84584	0.84584	0.46248	1.182
Mof_Zn	Zn	0.84584	0.84584	0.84584	1.181
Mof_Zn	Zn	0.84584	0.46248	0.84584	1.182
Mof_Zn	Zn	0.46248	0.84584	0.84584	1.183
Mof_Zn	Zn	0.25	0.25	0.25	1.136
Mof_Zn	Zn	0.75	0.75	0.75	1.134
Mof_H 	H 	6.67824e-17	0.3408	0.6592	0.097
Mof_H 	H 	0.3408	0	-0	0.096
Mof_H 	H 	0.6592	0	-0	0.095
Mof_H 	H 	4.45216e-17	0.6592	0.3408	0.097
Mof_H 	H 	-0	0.6592	-0	0.095
Mof_H 	H 	0.3408	4.45216e-17	0.6592	0.097
Mof_H 	H 	0.6592	2.22608e-17	0.3408	0.097
Mof_H 	H 	-2.22608e-17	0.3408	-0	0.096
Mof_H 	H 	-2.22608e-17	2.22608e-17	0.3408	0.096
Mof_H 	H 	0.3408	0.6592	-0	0.097
Mof_H 	H 	0.6592	0.3408	-0	0.097
Mof_H 	H 	2.22608e-17	4.45216e-17	0.6592	0.095
Mof_C 	C 	0.0536	0.401	0.4918	0.07
Mof_C 	C 	0.401	0.0536	0.0536	0.07
Mof_C 	C 	0.4918	0.0536	0.0536	0.069
Mof_C 	C 	0.0536	0.4918	0.401	0.07
Mof_C 	C 	0.0536	0.4918	0.0536	0.069
Mof_C 	C 	0.401	0.0536	0.4918	0.07
Mof_C 	C 	0.4918	0.0536	0.401	0.07
Mof_C 	C 	0.0536	0.401	0.0536	0.07
Mof_C 	C 	0.0536	0.0536	0.401	0.07
Mof_C 	C 	0.401	0.4918	0.0536	0.07
Mof_C 	C 	0.4918	0.401	0.0536	0.07
Mof_C 	C 	0.0536	0.0536	0.4918	0.069
Mof_C 	C 	0.599	0.9464	0.5082	0.057
Mof_C 	C 	0.9464	0.599	0.9464	0.043
Mof_C 	C 	0.9464	0.5082	0.9464	0.044
Mof_C 	C 	0.5082	0.9464	0.599	0.057
Mof_C 	C 	0.5082	0.9464	0.9464	0.044
Mof_C 	C 	0.9464	0.599	0.5082	0.057
Mof_C 	C 	0.9464	0.5082	0.599	0.057
Mof_C 	C 	0.599	0.9464	0.9464	0.043
Mof_C 	C 	0.9464	0.9464	0.599	0.043
Mof_C 	C 	0.5082	0.599	0.9464	0.057
Mof_C 	C 	0.599	0.5082	0.9464	0.057
Mof_C 	C 	0.9464	0.9464	0.5082	0.044
Mof_C 	C 	-6.67824e-17	0.4014	0.5986	-0.167
Mof_C 	C 	0.4014	0	-0	-0.149
Mof_C 	C 	0.5986	0	-0	-0.148
Mof_C 	C 	-1.11304e-17	0.5986	0.4014	-0.167
Mof_C 	C 	4.45216e-17	0.5986	-0	-0.148
Mof_C 	C 	0.4014	-2.22608e-17	0.5986	-0.167
Mof_C 	C 	0.5986	0	0.4014	-0.167
Mof_C 	C 	-0	0.4014	-0	-0.149
Mof_C 	C 	1.11304e-17	0	0.4014	-0.149
Mof_C 	C 	0.4014	0.5986	-0	-0.167
Mof_C 	C 	0.5986	0.4014	-0	-0.167
Mof_C 	C 	-2.22608e-17	-2.22608e-17	0.5986	-0.148
Mof_N 	N 	0.1142	0.31484	0.45676	-0.241
Mof_N 	N 	0.31484	0.1142	0.1142	-0.24
Mof_N 	N 	0.45676	0.1142	0.1142	-0.241
Mof_N 	N 	0.1142	0.45676	0.31484	-0.241
Mof_N 	N 	0.1142	0.45676	0.1142	-0.241
Mof_N 	N 	0.31484	0.1142	0.45676	-0.241
Mof_N 	N 	0.45676	0.1142	0.31484	-0.241
Mof_N 	N 	0.1142	0.31484	0.1142	-0.24
Mof_N 	N 	0.1142	0.1142	0.31484	-0.24
Mof_N 	N 	0.31484	0.45676	0.1142	-0.241
Mof_N 	N 	0.45676	0.31484	0.1142	-0.241
Mof_N 	N 	0.1142	0.1142	0.45676	-0.241
Mof_N 	N 	0.68516	0.8858	0.54324	-0.243
Mof_N 	N 	0.8858	0.68516	0.8858	-0.242
Mof_N 	N 	0.8858	0.54324	0.8858	-0.242
Mof_N 	N 	0.54324	0.8858	0.68516	-0.243
Mof_N 	N 	0.54324	0.8858	0.8858	-0.242
Mof_N 	N 	0.8858	0.68516	0.54324	-0.243
Mof_N 	N 	0.8858	0.54324	0.68516	-0.243
Mof_N 	N 	0.68516	0.8858	0.8858	-0.242
Mof_N 	N 	0.8858	0.8858	0.68516	-0.242
Mof_N 	N 	0.54324	0.68516	0.8858	-0.243
Mof_N 	N 	0.68516	0.54324	0.8858	-0.243
Mof_N 	N 	0.8858	0.8858	0.54324	-0.242
Mof_N 	N 	0.1481	0.3519	0.3519	-0.2
Mof_N 	N 	0.3519	0.1481	0.1481	-0.199
Mof_N 	N 	0.1481	0.3519	0.1481	-0.199
Mof_N 	N 	0.3519	0.1481	0.3519	-0.2
Mof_N 	N 	0.1481	0.1481	0.3519	-0.199
Mof_N 	N 	0.3519	0.3519	0.1481	-0.2
Mof_N 	N 	0.6481	0.8519	0.6481	-0.201
Mof_N 	N 	0.8519	0.6481	0.8519	-0.202
Mof_N 	N 	0.6481	0.8519	0.8519	-0.202
Mof_N 	N 	0.8519	0.6481	0.6481	-0.201
Mof_N 	N 	0.8519	0.8519	0.6481	-0.202
Mof_N 	N 	0.6481	0.6481	0.8519	-0.201
Mof_Cl	Cl	0.09812	0.09812	0.70564	-0.515
Mof_Cl	Cl	0.09812	0.09812	0.09812	-0.507
Mof_Cl	Cl	0.70564	0.09812	0.09812	-0.515
Mof_Cl	Cl	0.09812	0.70564	0.09812	-0.515
Mof_Cl	Cl	0.90188	0.90188	0.29436	-0.542
Mof_Cl	Cl	0.90188	0.90188	0.90188	-0.554
Mof_Cl	Cl	0.90188	0.29436	0.90188	-0.542
Mof_Cl	Cl	0.29436	0.90188	0.90188	-0.542
_end
